MODEL 1
REMARK minimizedAffinity -9.75175571
REMARK minimizedRMSD -1
REMARK  Name = 3ERT-OHT.pdb
REMARK  10 active torsions:
REMARK  status: ('A' for Active; 'I' for Inactive)
REMARK    1  A    between atoms: C1_1  and  C7_8
REMARK    2  A    between atoms: C4_4  and  O4_5
REMARK    3  A    between atoms: C7_8  and  C8_9
REMARK    4  A    between atoms: C7_8  and  C17_18
REMARK    5  A    between atoms: C8_9  and  C9_10
REMARK    6  A    between atoms: C8_9  and  C11_12
REMARK    7  A    between atoms: C20_21  and  O20_22
REMARK    8  A    between atoms: O20_22  and  C23_25
REMARK    9  A    between atoms: C23_25  and  C24_26
REMARK   10  A    between atoms: C24_26  and  N24_27
REMARK                            x       y       z     vdW  Elec       q    Type
REMARK                         _______ _______ _______ _____ _____    ______ ____
ROOT
ATOM      1  C7  OHT A 600      30.873  -0.729  26.635  0.00  0.00    +0.000 C 
ENDROOT
BRANCH   1   2
ATOM      2  C1  OHT A 600      29.467  -1.199  26.918  0.00  0.00    +0.000 A 
ATOM      3  C2  OHT A 600      28.364  -0.812  26.095  0.00  0.00    +0.000 A 
ATOM      4  C3  OHT A 600      27.060  -1.220  26.411  0.00  0.00    +0.000 A 
ATOM      5  C4  OHT A 600      26.847  -2.019  27.550  0.00  0.00    +0.000 A 
ATOM      6  C5  OHT A 600      27.931  -2.410  28.369  0.00  0.00    +0.000 A 
ATOM      7  C6  OHT A 600      29.214  -1.994  28.039  0.00  0.00    +0.000 A 
BRANCH   5   8
ATOM      8  O4  OHT A 600      25.568  -2.386  27.847  0.00  0.00    +0.000 OA
ATOM      9  H01 OHT A 600      25.285  -3.077  27.244  0.00  0.00    +0.000 HD
ENDBRANCH   5   8
ENDBRANCH   1   2
BRANCH   1  10
ATOM     10  C17 OHT A 600      31.608  -1.597  25.709  0.00  0.00    +0.000 A 
ATOM     11  C18 OHT A 600      31.618  -1.358  24.337  0.00  0.00    +0.000 A 
ATOM     12  C19 OHT A 600      32.317  -2.141  23.462  0.00  0.00    +0.000 A 
ATOM     13  C20 OHT A 600      33.050  -3.214  23.943  0.00  0.00    +0.000 A 
ATOM     14  C21 OHT A 600      33.061  -3.487  25.322  0.00  0.00    +0.000 A 
ATOM     15  C22 OHT A 600      32.353  -2.688  26.176  0.00  0.00    +0.000 A 
BRANCH  13  16
ATOM     16  O20 OHT A 600      33.805  -4.023  23.143  0.00  0.00    +0.000 OA
BRANCH  16  17
ATOM     17  C23 OHT A 600      33.322  -4.399  21.856  0.00  0.00    +0.000 C 
BRANCH  17  18
ATOM     18  C24 OHT A 600      34.467  -4.213  20.898  0.00  0.00    +0.000 C 
BRANCH  18  19
ATOM     19  N24 OHT A 600      35.130  -2.944  21.030  0.00  0.00    +0.000 NA
ATOM     20  C25 OHT A 600      36.586  -3.089  21.000  0.00  0.00    +0.000 C 
ATOM     21  C26 OHT A 600      34.736  -2.067  19.921  0.00  0.00    +0.000 C 
ENDBRANCH  18  19
ENDBRANCH  17  18
ENDBRANCH  16  17
ENDBRANCH  13  16
ENDBRANCH   1  10
BRANCH   1  22
ATOM     22  C8  OHT A 600      31.429   0.387  27.193  0.00  0.00    +0.000 C 
BRANCH  22  23
ATOM     23  C11 OHT A 600      32.884   0.521  27.506  0.00  0.00    +0.000 A 
ATOM     24  C12 OHT A 600      33.772   1.147  26.640  0.00  0.00    +0.000 A 
ATOM     25  C13 OHT A 600      35.141   1.226  26.920  0.00  0.00    +0.000 A 
ATOM     26  C14 OHT A 600      35.646   0.676  28.075  0.00  0.00    +0.000 A 
ATOM     27  C15 OHT A 600      34.787   0.047  28.953  0.00  0.00    +0.000 A 
ATOM     28  C16 OHT A 600      33.420  -0.037  28.687  0.00  0.00    +0.000 A 
ENDBRANCH  22  23
BRANCH  22  29
ATOM     29  C9  OHT A 600      30.615   1.613  27.552  0.00  0.00    +0.000 C 
ATOM     30  C10 OHT A 600      30.361   1.714  29.031  0.00  0.00    +0.000 C 
ENDBRANCH  22  29
ENDBRANCH   1  22
TORSDOF 10
ENDMDL
MODEL 2
REMARK minimizedAffinity -8.83674622
REMARK minimizedRMSD -1
REMARK  Name = 3ERT-OHT.pdb
REMARK  10 active torsions:
REMARK  status: ('A' for Active; 'I' for Inactive)
REMARK    1  A    between atoms: C1_1  and  C7_8
REMARK    2  A    between atoms: C4_4  and  O4_5
REMARK    3  A    between atoms: C7_8  and  C8_9
REMARK    4  A    between atoms: C7_8  and  C17_18
REMARK    5  A    between atoms: C8_9  and  C9_10
REMARK    6  A    between atoms: C8_9  and  C11_12
REMARK    7  A    between atoms: C20_21  and  O20_22
REMARK    8  A    between atoms: O20_22  and  C23_25
REMARK    9  A    between atoms: C23_25  and  C24_26
REMARK   10  A    between atoms: C24_26  and  N24_27
REMARK                            x       y       z     vdW  Elec       q    Type
REMARK                         _______ _______ _______ _____ _____    ______ ____
ROOT
ATOM      1  C7  OHT A 600      31.802  -0.529  26.481  0.00  0.00    +0.000 C 
ENDROOT
BRANCH   1   2
ATOM      2  C1  OHT A 600      33.098   0.053  26.989  0.00  0.00    +0.000 A 
ATOM      3  C2  OHT A 600      33.856   0.992  26.221  0.00  0.00    +0.000 A 
ATOM      4  C3  OHT A 600      35.083   1.477  26.694  0.00  0.00    +0.000 A 
ATOM      5  C4  OHT A 600      35.565   1.030  27.939  0.00  0.00    +0.000 A 
ATOM      6  C5  OHT A 600      34.824   0.105  28.709  0.00  0.00    +0.000 A 
ATOM      7  C6  OHT A 600      33.611  -0.365  28.221  0.00  0.00    +0.000 A 
BRANCH   5   8
ATOM      8  O4  OHT A 600      36.770   1.501  28.368  0.00  0.00    +0.000 OA
ATOM      9  H01 OHT A 600      36.670   2.407  28.671  0.00  0.00    +0.000 HD
ENDBRANCH   5   8
ENDBRANCH   1   2
BRANCH   1  10
ATOM     10  C17 OHT A 600      31.980  -1.504  25.400  0.00  0.00    +0.000 A 
ATOM     11  C18 OHT A 600      31.672  -1.193  24.078  0.00  0.00    +0.000 A 
ATOM     12  C19 OHT A 600      31.854  -2.079  23.055  0.00  0.00    +0.000 A 
ATOM     13  C20 OHT A 600      32.366  -3.338  23.326  0.00  0.00    +0.000 A 
ATOM     14  C21 OHT A 600      32.686  -3.688  24.650  0.00  0.00    +0.000 A 
ATOM     15  C22 OHT A 600      32.494  -2.782  25.655  0.00  0.00    +0.000 A 
BRANCH  13  16
ATOM     16  O20 OHT A 600      32.613  -4.270  22.359  0.00  0.00    +0.000 OA
BRANCH  16  17
ATOM     17  C23 OHT A 600      32.459  -3.925  20.985  0.00  0.00    +0.000 C 
BRANCH  17  18
ATOM     18  C24 OHT A 600      33.838  -3.944  20.383  0.00  0.00    +0.000 C 
BRANCH  18  19
ATOM     19  N24 OHT A 600      34.605  -2.760  20.657  0.00  0.00    +0.000 NA
ATOM     20  C25 OHT A 600      35.973  -3.083  21.063  0.00  0.00    +0.000 C 
ATOM     21  C26 OHT A 600      34.672  -1.928  19.450  0.00  0.00    +0.000 C 
ENDBRANCH  18  19
ENDBRANCH  17  18
ENDBRANCH  16  17
ENDBRANCH  13  16
ENDBRANCH   1  10
BRANCH   1  22
ATOM     22  C8  OHT A 600      30.572  -0.181  26.961  0.00  0.00    +0.000 C 
BRANCH  22  23
ATOM     23  C11 OHT A 600      29.392  -1.098  26.959  0.00  0.00    +0.000 A 
ATOM     24  C12 OHT A 600      28.247  -0.828  26.220  0.00  0.00    +0.000 A 
ATOM     25  C13 OHT A 600      27.128  -1.668  26.261  0.00  0.00    +0.000 A 
ATOM     26  C14 OHT A 600      27.136  -2.796  27.047  0.00  0.00    +0.000 A 
ATOM     27  C15 OHT A 600      28.261  -3.089  27.793  0.00  0.00    +0.000 A 
ATOM     28  C16 OHT A 600      29.383  -2.260  27.759  0.00  0.00    +0.000 A 
ENDBRANCH  22  23
BRANCH  22  29
ATOM     29  C9  OHT A 600      30.280   1.185  27.548  0.00  0.00    +0.000 C 
ATOM     30  C10 OHT A 600      30.171   1.147  29.048  0.00  0.00    +0.000 C 
ENDBRANCH  22  29
ENDBRANCH   1  22
TORSDOF 10
ENDMDL
MODEL 3
REMARK minimizedAffinity -8.29060268
REMARK minimizedRMSD -1
REMARK  Name = 3ERT-OHT.pdb
REMARK  10 active torsions:
REMARK  status: ('A' for Active; 'I' for Inactive)
REMARK    1  A    between atoms: C1_1  and  C7_8
REMARK    2  A    between atoms: C4_4  and  O4_5
REMARK    3  A    between atoms: C7_8  and  C8_9
REMARK    4  A    between atoms: C7_8  and  C17_18
REMARK    5  A    between atoms: C8_9  and  C9_10
REMARK    6  A    between atoms: C8_9  and  C11_12
REMARK    7  A    between atoms: C20_21  and  O20_22
REMARK    8  A    between atoms: O20_22  and  C23_25
REMARK    9  A    between atoms: C23_25  and  C24_26
REMARK   10  A    between atoms: C24_26  and  N24_27
REMARK                            x       y       z     vdW  Elec       q    Type
REMARK                         _______ _______ _______ _____ _____    ______ ____
ROOT
ATOM      1  C7  OHT A 600      31.852  -0.569  26.398  0.00  0.00    +0.000 C 
ENDROOT
BRANCH   1   2
ATOM      2  C1  OHT A 600      33.131   0.028  26.934  0.00  0.00    +0.000 A 
ATOM      3  C2  OHT A 600      33.850   1.036  26.219  0.00  0.00    +0.000 A 
ATOM      4  C3  OHT A 600      35.063   1.536  26.714  0.00  0.00    +0.000 A 
ATOM      5  C4  OHT A 600      35.568   1.034  27.929  0.00  0.00    +0.000 A 
ATOM      6  C5  OHT A 600      34.864   0.040  28.646  0.00  0.00    +0.000 A 
ATOM      7  C6  OHT A 600      33.665  -0.443  28.137  0.00  0.00    +0.000 A 
BRANCH   5   8
ATOM      8  O4  OHT A 600      36.758   1.521  28.380  0.00  0.00    +0.000 OA
ATOM      9  H01 OHT A 600      36.629   2.403  28.735  0.00  0.00    +0.000 HD
ENDBRANCH   5   8
ENDBRANCH   1   2
BRANCH   1  10
ATOM     10  C17 OHT A 600      32.064  -1.539  25.319  0.00  0.00    +0.000 A 
ATOM     11  C18 OHT A 600      32.416  -2.860  25.583  0.00  0.00    +0.000 A 
ATOM     12  C19 OHT A 600      32.593  -3.784  24.592  0.00  0.00    +0.000 A 
ATOM     13  C20 OHT A 600      32.417  -3.407  23.270  0.00  0.00    +0.000 A 
ATOM     14  C21 OHT A 600      32.064  -2.081  22.966  0.00  0.00    +0.000 A 
ATOM     15  C22 OHT A 600      31.893  -1.177  23.976  0.00  0.00    +0.000 A 
BRANCH  13  16
ATOM     16  O20 OHT A 600      32.538  -4.275  22.223  0.00  0.00    +0.000 OA
BRANCH  16  17
ATOM     17  C23 OHT A 600      33.627  -4.145  21.315  0.00  0.00    +0.000 C 
BRANCH  17  18
ATOM     18  C24 OHT A 600      33.066  -4.374  19.938  0.00  0.00    +0.000 C 
BRANCH  18  19
ATOM     19  N24 OHT A 600      33.845  -3.774  18.889  0.00  0.00    +0.000 NA
ATOM     20  C25 OHT A 600      33.251  -2.521  18.423  0.00  0.00    +0.000 C 
ATOM     21  C26 OHT A 600      35.195  -3.483  19.386  0.00  0.00    +0.000 C 
ENDBRANCH  18  19
ENDBRANCH  17  18
ENDBRANCH  16  17
ENDBRANCH  13  16
ENDBRANCH   1  10
BRANCH   1  22
ATOM     22  C8  OHT A 600      30.609  -0.236  26.853  0.00  0.00    +0.000 C 
BRANCH  22  23
ATOM     23  C11 OHT A 600      29.444  -1.174  26.843  0.00  0.00    +0.000 A 
ATOM     24  C12 OHT A 600      28.320  -0.948  26.059  0.00  0.00    +0.000 A 
ATOM     25  C13 OHT A 600      27.215  -1.806  26.092  0.00  0.00    +0.000 A 
ATOM     26  C14 OHT A 600      27.216  -2.908  26.913  0.00  0.00    +0.000 A 
ATOM     27  C15 OHT A 600      28.320  -3.158  27.704  0.00  0.00    +0.000 A 
ATOM     28  C16 OHT A 600      29.429  -2.311  27.679  0.00  0.00    +0.000 A 
ENDBRANCH  22  23
BRANCH  22  29
ATOM     29  C9  OHT A 600      30.283   1.130  27.419  0.00  0.00    +0.000 C 
ATOM     30  C10 OHT A 600      30.251   1.130  28.923  0.00  0.00    +0.000 C 
ENDBRANCH  22  29
ENDBRANCH   1  22
TORSDOF 10
ENDMDL
MODEL 4
REMARK minimizedAffinity -8.21080399
REMARK minimizedRMSD -1
REMARK  Name = 3ERT-OHT.pdb
REMARK  10 active torsions:
REMARK  status: ('A' for Active; 'I' for Inactive)
REMARK    1  A    between atoms: C1_1  and  C7_8
REMARK    2  A    between atoms: C4_4  and  O4_5
REMARK    3  A    between atoms: C7_8  and  C8_9
REMARK    4  A    between atoms: C7_8  and  C17_18
REMARK    5  A    between atoms: C8_9  and  C9_10
REMARK    6  A    between atoms: C8_9  and  C11_12
REMARK    7  A    between atoms: C20_21  and  O20_22
REMARK    8  A    between atoms: O20_22  and  C23_25
REMARK    9  A    between atoms: C23_25  and  C24_26
REMARK   10  A    between atoms: C24_26  and  N24_27
REMARK                            x       y       z     vdW  Elec       q    Type
REMARK                         _______ _______ _______ _____ _____    ______ ____
ROOT
ATOM      1  C7  OHT A 600      32.027  -1.284  26.080  0.00  0.00    +0.000 C 
ENDROOT
BRANCH   1   2
ATOM      2  C1  OHT A 600      33.139  -0.411  26.606  0.00  0.00    +0.000 A 
ATOM      3  C2  OHT A 600      33.378   0.900  26.087  0.00  0.00    +0.000 A 
ATOM      4  C3  OHT A 600      34.452   1.670  26.558  0.00  0.00    +0.000 A 
ATOM      5  C4  OHT A 600      35.296   1.138  27.551  0.00  0.00    +0.000 A 
ATOM      6  C5  OHT A 600      35.068  -0.156  28.073  0.00  0.00    +0.000 A 
ATOM      7  C6  OHT A 600      34.000  -0.903  27.592  0.00  0.00    +0.000 A 
BRANCH   5   8
ATOM      8  O4  OHT A 600      36.344   1.897  27.977  0.00  0.00    +0.000 OA
ATOM      9  H01 OHT A 600      36.021   2.596  28.550  0.00  0.00    +0.000 HD
ENDBRANCH   5   8
ENDBRANCH   1   2
BRANCH   1  10
ATOM     10  C17 OHT A 600      32.392  -2.042  24.879  0.00  0.00    +0.000 A 
ATOM     11  C18 OHT A 600      33.302  -3.095  24.929  0.00  0.00    +0.000 A 
ATOM     12  C19 OHT A 600      33.636  -3.828  23.825  0.00  0.00    +0.000 A 
ATOM     13  C20 OHT A 600      33.054  -3.526  22.605  0.00  0.00    +0.000 A 
ATOM     14  C21 OHT A 600      32.133  -2.467  22.516  0.00  0.00    +0.000 A 
ATOM     15  C22 OHT A 600      31.817  -1.749  23.635  0.00  0.00    +0.000 A 
BRANCH  13  16
ATOM     16  O20 OHT A 600      33.303  -4.231  21.462  0.00  0.00    +0.000 OA
BRANCH  16  17
ATOM     17  C23 OHT A 600      34.621  -4.263  20.921  0.00  0.00    +0.000 C 
BRANCH  17  18
ATOM     18  C24 OHT A 600      34.747  -3.055  20.032  0.00  0.00    +0.000 C 
BRANCH  18  19
ATOM     19  N24 OHT A 600      35.916  -2.262  20.298  0.00  0.00    +0.000 NA
ATOM     20  C25 OHT A 600      36.949  -3.036  20.989  0.00  0.00    +0.000 C 
ATOM     21  C26 OHT A 600      36.478  -1.776  19.033  0.00  0.00    +0.000 C 
ENDBRANCH  18  19
ENDBRANCH  17  18
ENDBRANCH  16  17
ENDBRANCH  13  16
ENDBRANCH   1  10
BRANCH   1  22
ATOM     22  C8  OHT A 600      30.787  -1.360  26.647  0.00  0.00    +0.000 C 
BRANCH  22  23
ATOM     23  C11 OHT A 600      30.203  -0.289  27.511  0.00  0.00    +0.000 A 
ATOM     24  C12 OHT A 600      29.296   0.643  27.023  0.00  0.00    +0.000 A 
ATOM     25  C13 OHT A 600      28.791   1.671  27.827  0.00  0.00    +0.000 A 
ATOM     26  C14 OHT A 600      29.188   1.784  29.138  0.00  0.00    +0.000 A 
ATOM     27  C15 OHT A 600      30.089   0.872  29.651  0.00  0.00    +0.000 A 
ATOM     28  C16 OHT A 600      30.598  -0.158  28.860  0.00  0.00    +0.000 A 
ENDBRANCH  22  23
BRANCH  22  29
ATOM     29  C9  OHT A 600      29.871  -2.551  26.454  0.00  0.00    +0.000 C 
ATOM     30  C10 OHT A 600      28.827  -2.646  27.532  0.00  0.00    +0.000 C 
ENDBRANCH  22  29
ENDBRANCH   1  22
TORSDOF 10
ENDMDL
MODEL 5
REMARK minimizedAffinity -8.17136478
REMARK minimizedRMSD -1
REMARK  Name = 3ERT-OHT.pdb
REMARK  10 active torsions:
REMARK  status: ('A' for Active; 'I' for Inactive)
REMARK    1  A    between atoms: C1_1  and  C7_8
REMARK    2  A    between atoms: C4_4  and  O4_5
REMARK    3  A    between atoms: C7_8  and  C8_9
REMARK    4  A    between atoms: C7_8  and  C17_18
REMARK    5  A    between atoms: C8_9  and  C9_10
REMARK    6  A    between atoms: C8_9  and  C11_12
REMARK    7  A    between atoms: C20_21  and  O20_22
REMARK    8  A    between atoms: O20_22  and  C23_25
REMARK    9  A    between atoms: C23_25  and  C24_26
REMARK   10  A    between atoms: C24_26  and  N24_27
REMARK                            x       y       z     vdW  Elec       q    Type
REMARK                         _______ _______ _______ _____ _____    ______ ____
ROOT
ATOM      1  C7  OHT A 600      34.072  -3.087  20.286  0.00  0.00    +0.000 C 
ENDROOT
BRANCH   1   2
ATOM      2  C1  OHT A 600      35.298  -2.281  19.932  0.00  0.00    +0.000 A 
ATOM      3  C2  OHT A 600      35.203  -0.940  19.445  0.00  0.00    +0.000 A 
ATOM      4  C3  OHT A 600      36.355  -0.231  19.075  0.00  0.00    +0.000 A 
ATOM      5  C4  OHT A 600      37.612  -0.856  19.187  0.00  0.00    +0.000 A 
ATOM      6  C5  OHT A 600      37.718  -2.180  19.670  0.00  0.00    +0.000 A 
ATOM      7  C6  OHT A 600      36.564  -2.865  20.031  0.00  0.00    +0.000 A 
BRANCH   5   8
ATOM      8  O4  OHT A 600      38.715  -0.154  18.802  0.00  0.00    +0.000 OA
ATOM      9  H01 OHT A 600      38.923   0.506  19.467  0.00  0.00    +0.000 HD
ENDBRANCH   5   8
ENDBRANCH   1   2
BRANCH   1  10
ATOM     10  C17 OHT A 600      33.783  -3.117  21.723  0.00  0.00    +0.000 A 
ATOM     11  C18 OHT A 600      32.717  -2.406  22.268  0.00  0.00    +0.000 A 
ATOM     12  C19 OHT A 600      32.417  -2.442  23.601  0.00  0.00    +0.000 A 
ATOM     13  C20 OHT A 600      33.192  -3.212  24.453  0.00  0.00    +0.000 A 
ATOM     14  C21 OHT A 600      34.278  -3.940  23.938  0.00  0.00    +0.000 A 
ATOM     15  C22 OHT A 600      34.557  -3.887  22.601  0.00  0.00    +0.000 A 
BRANCH  13  16
ATOM     16  O20 OHT A 600      32.939  -3.332  25.790  0.00  0.00    +0.000 OA
BRANCH  16  17
ATOM     17  C23 OHT A 600      32.139  -2.357  26.452  0.00  0.00    +0.000 C 
BRANCH  17  18
ATOM     18  C24 OHT A 600      33.091  -1.429  27.157  0.00  0.00    +0.000 C 
BRANCH  18  19
ATOM     19  N24 OHT A 600      32.829  -0.037  26.911  0.00  0.00    +0.000 NA
ATOM     20  C25 OHT A 600      32.281   0.627  28.094  0.00  0.00    +0.000 C 
ATOM     21  C26 OHT A 600      34.079   0.640  26.545  0.00  0.00    +0.000 C 
ENDBRANCH  18  19
ENDBRANCH  17  18
ENDBRANCH  16  17
ENDBRANCH  13  16
ENDBRANCH   1  10
BRANCH   1  22
ATOM     22  C8  OHT A 600      33.304  -3.745  19.368  0.00  0.00    +0.000 C 
BRANCH  22  23
ATOM     23  C11 OHT A 600      31.960  -3.270  18.919  0.00  0.00    +0.000 A 
ATOM     24  C12 OHT A 600      31.801  -2.425  17.827  0.00  0.00    +0.000 A 
ATOM     25  C13 OHT A 600      30.543  -1.947  17.443  0.00  0.00    +0.000 A 
ATOM     26  C14 OHT A 600      29.419  -2.307  18.148  0.00  0.00    +0.000 A 
ATOM     27  C15 OHT A 600      29.547  -3.144  19.239  0.00  0.00    +0.000 A 
ATOM     28  C16 OHT A 600      30.795  -3.629  19.630  0.00  0.00    +0.000 A 
ENDBRANCH  22  23
BRANCH  22  29
ATOM     29  C9  OHT A 600      33.744  -5.035  18.708  0.00  0.00    +0.000 C 
ATOM     30  C10 OHT A 600      34.069  -6.106  19.713  0.00  0.00    +0.000 C 
ENDBRANCH  22  29
ENDBRANCH   1  22
TORSDOF 10
ENDMDL
MODEL 6
REMARK minimizedAffinity -8.08916283
REMARK minimizedRMSD -1
REMARK  Name = 3ERT-OHT.pdb
REMARK  10 active torsions:
REMARK  status: ('A' for Active; 'I' for Inactive)
REMARK    1  A    between atoms: C1_1  and  C7_8
REMARK    2  A    between atoms: C4_4  and  O4_5
REMARK    3  A    between atoms: C7_8  and  C8_9
REMARK    4  A    between atoms: C7_8  and  C17_18
REMARK    5  A    between atoms: C8_9  and  C9_10
REMARK    6  A    between atoms: C8_9  and  C11_12
REMARK    7  A    between atoms: C20_21  and  O20_22
REMARK    8  A    between atoms: O20_22  and  C23_25
REMARK    9  A    between atoms: C23_25  and  C24_26
REMARK   10  A    between atoms: C24_26  and  N24_27
REMARK                            x       y       z     vdW  Elec       q    Type
REMARK                         _______ _______ _______ _____ _____    ______ ____
ROOT
ATOM      1  C7  OHT A 600      32.101  -1.280  26.192  0.00  0.00    +0.000 C 
ENDROOT
BRANCH   1   2
ATOM      2  C1  OHT A 600      33.270  -0.448  26.659  0.00  0.00    +0.000 A 
ATOM      3  C2  OHT A 600      34.130  -0.882  27.715  0.00  0.00    +0.000 A 
ATOM      4  C3  OHT A 600      35.177  -0.065  28.165  0.00  0.00    +0.000 A 
ATOM      5  C4  OHT A 600      35.375   1.192  27.564  0.00  0.00    +0.000 A 
ATOM      6  C5  OHT A 600      34.533   1.630  26.516  0.00  0.00    +0.000 A 
ATOM      7  C6  OHT A 600      33.500   0.807  26.086  0.00  0.00    +0.000 A 
BRANCH   5   8
ATOM      8  O4  OHT A 600      36.387   1.976  28.031  0.00  0.00    +0.000 OA
ATOM      9  H01 OHT A 600      37.228   1.634  27.719  0.00  0.00    +0.000 HD
ENDBRANCH   5   8
ENDBRANCH   1   2
BRANCH   1  10
ATOM     10  C17 OHT A 600      32.367  -2.027  24.959  0.00  0.00    +0.000 A 
ATOM     11  C18 OHT A 600      31.781  -1.669  23.747  0.00  0.00    +0.000 A 
ATOM     12  C19 OHT A 600      32.036  -2.338  22.583  0.00  0.00    +0.000 A 
ATOM     13  C20 OHT A 600      32.910  -3.413  22.592  0.00  0.00    +0.000 A 
ATOM     14  C21 OHT A 600      33.518  -3.804  23.798  0.00  0.00    +0.000 A 
ATOM     15  C22 OHT A 600      33.246  -3.119  24.948  0.00  0.00    +0.000 A 
BRANCH  13  16
ATOM     16  O20 OHT A 600      33.248  -4.112  21.469  0.00  0.00    +0.000 OA
BRANCH  16  17
ATOM     17  C23 OHT A 600      34.368  -3.704  20.689  0.00  0.00    +0.000 C 
BRANCH  17  18
ATOM     18  C24 OHT A 600      33.818  -2.930  19.521  0.00  0.00    +0.000 C 
BRANCH  18  19
ATOM     19  N24 OHT A 600      32.733  -3.591  18.850  0.00  0.00    +0.000 NA
ATOM     20  C25 OHT A 600      31.923  -2.650  18.075  0.00  0.00    +0.000 C 
ATOM     21  C26 OHT A 600      33.267  -4.601  17.929  0.00  0.00    +0.000 C 
ENDBRANCH  18  19
ENDBRANCH  17  18
ENDBRANCH  16  17
ENDBRANCH  13  16
ENDBRANCH   1  10
BRANCH   1  22
ATOM     22  C8  OHT A 600      30.898  -1.332  26.837  0.00  0.00    +0.000 C 
BRANCH  22  23
ATOM     23  C11 OHT A 600      30.397  -0.254  27.743  0.00  0.00    +0.000 A 
ATOM     24  C12 OHT A 600      29.782   0.893  27.257  0.00  0.00    +0.000 A 
ATOM     25  C13 OHT A 600      29.358   1.918  28.110  0.00  0.00    +0.000 A 
ATOM     26  C14 OHT A 600      29.544   1.813  29.468  0.00  0.00    +0.000 A 
ATOM     27  C15 OHT A 600      30.153   0.684  29.979  0.00  0.00    +0.000 A 
ATOM     28  C16 OHT A 600      30.578  -0.346  29.139  0.00  0.00    +0.000 A 
ENDBRANCH  22  23
BRANCH  22  29
ATOM     29  C9  OHT A 600      29.944  -2.499  26.694  0.00  0.00    +0.000 C 
ATOM     30  C10 OHT A 600      28.661  -2.106  26.015  0.00  0.00    +0.000 C 
ENDBRANCH  22  29
ENDBRANCH   1  22
TORSDOF 10
ENDMDL
MODEL 7
REMARK minimizedAffinity -7.74328995
REMARK minimizedRMSD -1
REMARK  Name = 3ERT-OHT.pdb
REMARK  10 active torsions:
REMARK  status: ('A' for Active; 'I' for Inactive)
REMARK    1  A    between atoms: C1_1  and  C7_8
REMARK    2  A    between atoms: C4_4  and  O4_5
REMARK    3  A    between atoms: C7_8  and  C8_9
REMARK    4  A    between atoms: C7_8  and  C17_18
REMARK    5  A    between atoms: C8_9  and  C9_10
REMARK    6  A    between atoms: C8_9  and  C11_12
REMARK    7  A    between atoms: C20_21  and  O20_22
REMARK    8  A    between atoms: O20_22  and  C23_25
REMARK    9  A    between atoms: C23_25  and  C24_26
REMARK   10  A    between atoms: C24_26  and  N24_27
REMARK                            x       y       z     vdW  Elec       q    Type
REMARK                         _______ _______ _______ _____ _____    ______ ____
ROOT
ATOM      1  C7  OHT A 600      33.648  -3.105  17.786  0.00  0.00    +0.000 C 
ENDROOT
BRANCH   1   2
ATOM      2  C1  OHT A 600      32.234  -2.988  18.299  0.00  0.00    +0.000 A 
ATOM      3  C2  OHT A 600      31.839  -3.545  19.555  0.00  0.00    +0.000 A 
ATOM      4  C3  OHT A 600      30.506  -3.467  19.984  0.00  0.00    +0.000 A 
ATOM      5  C4  OHT A 600      29.556  -2.831  19.163  0.00  0.00    +0.000 A 
ATOM      6  C5  OHT A 600      29.936  -2.273  17.920  0.00  0.00    +0.000 A 
ATOM      7  C6  OHT A 600      31.261  -2.363  17.513  0.00  0.00    +0.000 A 
BRANCH   5   8
ATOM      8  O4  OHT A 600      28.263  -2.785  19.592  0.00  0.00    +0.000 OA
ATOM      9  H01 OHT A 600      28.180  -2.130  20.288  0.00  0.00    +0.000 HD
ENDBRANCH   5   8
ENDBRANCH   1   2
BRANCH   1  10
ATOM     10  C17 OHT A 600      34.411  -1.856  17.873  0.00  0.00    +0.000 A 
ATOM     11  C18 OHT A 600      34.912  -1.389  19.086  0.00  0.00    +0.000 A 
ATOM     12  C19 OHT A 600      35.645  -0.241  19.182  0.00  0.00    +0.000 A 
ATOM     13  C20 OHT A 600      35.912   0.496  18.039  0.00  0.00    +0.000 A 
ATOM     14  C21 OHT A 600      35.420   0.056  16.798  0.00  0.00    +0.000 A 
ATOM     15  C22 OHT A 600      34.688  -1.096  16.729  0.00  0.00    +0.000 A 
BRANCH  13  16
ATOM     16  O20 OHT A 600      36.667   1.634  18.042  0.00  0.00    +0.000 OA
BRANCH  16  17
ATOM     17  C23 OHT A 600      37.870   1.690  17.281  0.00  0.00    +0.000 C 
BRANCH  17  18
ATOM     18  C24 OHT A 600      38.830   0.728  17.927  0.00  0.00    +0.000 C 
BRANCH  18  19
ATOM     19  N24 OHT A 600      39.366  -0.250  17.020  0.00  0.00    +0.000 NA
ATOM     20  C25 OHT A 600      38.826  -1.585  17.283  0.00  0.00    +0.000 C 
ATOM     21  C26 OHT A 600      39.021   0.118  15.642  0.00  0.00    +0.000 C 
ENDBRANCH  18  19
ENDBRANCH  17  18
ENDBRANCH  16  17
ENDBRANCH  13  16
ENDBRANCH   1  10
BRANCH   1  22
ATOM     22  C8  OHT A 600      34.177  -4.254  17.272  0.00  0.00    +0.000 C 
BRANCH  22  23
ATOM     23  C11 OHT A 600      35.515  -4.797  17.661  0.00  0.00    +0.000 A 
ATOM     24  C12 OHT A 600      35.765  -5.308  18.928  0.00  0.00    +0.000 A 
ATOM     25  C13 OHT A 600      37.033  -5.771  19.298  0.00  0.00    +0.000 A 
ATOM     26  C14 OHT A 600      38.076  -5.729  18.403  0.00  0.00    +0.000 A 
ATOM     27  C15 OHT A 600      37.856  -5.225  17.136  0.00  0.00    +0.000 A 
ATOM     28  C16 OHT A 600      36.596  -4.763  16.755  0.00  0.00    +0.000 A 
ENDBRANCH  22  23
BRANCH  22  29
ATOM     29  C9  OHT A 600      33.453  -5.101  16.247  0.00  0.00    +0.000 C 
ATOM     30  C10 OHT A 600      33.316  -4.399  14.923  0.00  0.00    +0.000 C 
ENDBRANCH  22  29
ENDBRANCH   1  22
TORSDOF 10
ENDMDL
MODEL 8
REMARK minimizedAffinity -7.62611341
REMARK minimizedRMSD -1
REMARK  Name = 3ERT-OHT.pdb
REMARK  10 active torsions:
REMARK  status: ('A' for Active; 'I' for Inactive)
REMARK    1  A    between atoms: C1_1  and  C7_8
REMARK    2  A    between atoms: C4_4  and  O4_5
REMARK    3  A    between atoms: C7_8  and  C8_9
REMARK    4  A    between atoms: C7_8  and  C17_18
REMARK    5  A    between atoms: C8_9  and  C9_10
REMARK    6  A    between atoms: C8_9  and  C11_12
REMARK    7  A    between atoms: C20_21  and  O20_22
REMARK    8  A    between atoms: O20_22  and  C23_25
REMARK    9  A    between atoms: C23_25  and  C24_26
REMARK   10  A    between atoms: C24_26  and  N24_27
REMARK                            x       y       z     vdW  Elec       q    Type
REMARK                         _______ _______ _______ _____ _____    ______ ____
ROOT
ATOM      1  C7  OHT A 600      34.036  -3.120  20.349  0.00  0.00    +0.000 C 
ENDROOT
BRANCH   1   2
ATOM      2  C1  OHT A 600      33.783  -3.128  21.836  0.00  0.00    +0.000 A 
ATOM      3  C2  OHT A 600      34.587  -3.897  22.734  0.00  0.00    +0.000 A 
ATOM      4  C3  OHT A 600      34.297  -3.928  24.105  0.00  0.00    +0.000 A 
ATOM      5  C4  OHT A 600      33.201  -3.191  24.593  0.00  0.00    +0.000 A 
ATOM      6  C5  OHT A 600      32.400  -2.425  23.715  0.00  0.00    +0.000 A 
ATOM      7  C6  OHT A 600      32.704  -2.409  22.360  0.00  0.00    +0.000 A 
BRANCH   5   8
ATOM      8  O4  OHT A 600      32.927  -3.253  25.926  0.00  0.00    +0.000 OA
ATOM      9  H01 OHT A 600      33.566  -2.725  26.409  0.00  0.00    +0.000 HD
ENDBRANCH   5   8
ENDBRANCH   1   2
BRANCH   1  10
ATOM     10  C17 OHT A 600      35.222  -2.351  19.959  0.00  0.00    +0.000 A 
ATOM     11  C18 OHT A 600      36.500  -2.903  20.012  0.00  0.00    +0.000 A 
ATOM     12  C19 OHT A 600      37.614  -2.210  19.630  0.00  0.00    +0.000 A 
ATOM     13  C20 OHT A 600      37.483  -0.911  19.167  0.00  0.00    +0.000 A 
ATOM     14  C21 OHT A 600      36.209  -0.321  19.102  0.00  0.00    +0.000 A 
ATOM     15  C22 OHT A 600      35.111  -1.035  19.491  0.00  0.00    +0.000 A 
BRANCH  13  16
ATOM     16  O20 OHT A 600      38.539  -0.162  18.731  0.00  0.00    +0.000 OA
BRANCH  16  17
ATOM     17  C23 OHT A 600      38.480   0.476  17.459  0.00  0.00    +0.000 C 
BRANCH  17  18
ATOM     18  C24 OHT A 600      38.516  -0.620  16.428  0.00  0.00    +0.000 C 
BRANCH  18  19
ATOM     19  N24 OHT A 600      37.836  -0.286  15.207  0.00  0.00    +0.000 NA
ATOM     20  C25 OHT A 600      38.771  -0.134  14.091  0.00  0.00    +0.000 C 
ATOM     21  C26 OHT A 600      36.889  -1.354  14.866  0.00  0.00    +0.000 C 
ENDBRANCH  18  19
ENDBRANCH  17  18
ENDBRANCH  16  17
ENDBRANCH  13  16
ENDBRANCH   1  10
BRANCH   1  22
ATOM     22  C8  OHT A 600      33.238  -3.750  19.438  0.00  0.00    +0.000 C 
BRANCH  22  23
ATOM     23  C11 OHT A 600      31.918  -3.217  18.982  0.00  0.00    +0.000 A 
ATOM     24  C12 OHT A 600      30.728  -3.549  19.616  0.00  0.00    +0.000 A 
ATOM     25  C13 OHT A 600      29.492  -3.082  19.153  0.00  0.00    +0.000 A 
ATOM     26  C14 OHT A 600      29.427  -2.273  18.044  0.00  0.00    +0.000 A 
ATOM     27  C15 OHT A 600      30.595  -1.927  17.393  0.00  0.00    +0.000 A 
ATOM     28  C16 OHT A 600      31.833  -2.384  17.846  0.00  0.00    +0.000 A 
ENDBRANCH  22  23
BRANCH  22  29
ATOM     29  C9  OHT A 600      33.616  -5.068  18.792  0.00  0.00    +0.000 C 
ATOM     30  C10 OHT A 600      34.458  -4.876  17.560  0.00  0.00    +0.000 C 
ENDBRANCH  22  29
ENDBRANCH   1  22
TORSDOF 10
ENDMDL
MODEL 9
REMARK minimizedAffinity -7.57189465
REMARK minimizedRMSD -1
REMARK  Name = 3ERT-OHT.pdb
REMARK  10 active torsions:
REMARK  status: ('A' for Active; 'I' for Inactive)
REMARK    1  A    between atoms: C1_1  and  C7_8
REMARK    2  A    between atoms: C4_4  and  O4_5
REMARK    3  A    between atoms: C7_8  and  C8_9
REMARK    4  A    between atoms: C7_8  and  C17_18
REMARK    5  A    between atoms: C8_9  and  C9_10
REMARK    6  A    between atoms: C8_9  and  C11_12
REMARK    7  A    between atoms: C20_21  and  O20_22
REMARK    8  A    between atoms: O20_22  and  C23_25
REMARK    9  A    between atoms: C23_25  and  C24_26
REMARK   10  A    between atoms: C24_26  and  N24_27
REMARK                            x       y       z     vdW  Elec       q    Type
REMARK                         _______ _______ _______ _____ _____    ______ ____
ROOT
ATOM      1  C7  OHT A 600      34.178  -2.622  19.041  0.00  0.00    +0.000 C 
ENDROOT
BRANCH   1   2
ATOM      2  C1  OHT A 600      35.423  -1.816  18.764  0.00  0.00    +0.000 A 
ATOM      3  C2  OHT A 600      36.572  -2.393  18.138  0.00  0.00    +0.000 A 
ATOM      4  C3  OHT A 600      37.734  -1.635  17.940  0.00  0.00    +0.000 A 
ATOM      5  C4  OHT A 600      37.761  -0.293  18.366  0.00  0.00    +0.000 A 
ATOM      6  C5  OHT A 600      36.631   0.289  18.984  0.00  0.00    +0.000 A 
ATOM      7  C6  OHT A 600      35.489  -0.480  19.172  0.00  0.00    +0.000 A 
BRANCH   5   8
ATOM      8  O4  OHT A 600      38.909   0.417  18.181  0.00  0.00    +0.000 OA
ATOM      9  H01 OHT A 600      38.994   0.653  17.255  0.00  0.00    +0.000 HD
ENDBRANCH   5   8
ENDBRANCH   1   2
BRANCH   1  10
ATOM     10  C17 OHT A 600      34.021  -2.996  20.450  0.00  0.00    +0.000 A 
ATOM     11  C18 OHT A 600      35.036  -3.641  21.152  0.00  0.00    +0.000 A 
ATOM     12  C19 OHT A 600      34.917  -3.974  22.472  0.00  0.00    +0.000 A 
ATOM     13  C20 OHT A 600      33.750  -3.664  23.151  0.00  0.00    +0.000 A 
ATOM     14  C21 OHT A 600      32.702  -3.016  22.473  0.00  0.00    +0.000 A 
ATOM     15  C22 OHT A 600      32.847  -2.693  21.153  0.00  0.00    +0.000 A 
BRANCH  13  16
ATOM     16  O20 OHT A 600      33.563  -3.928  24.477  0.00  0.00    +0.000 OA
BRANCH  16  17
ATOM     17  C23 OHT A 600      32.515  -3.278  25.190  0.00  0.00    +0.000 C 
BRANCH  17  18
ATOM     18  C24 OHT A 600      33.159  -2.178  25.989  0.00  0.00    +0.000 C 
BRANCH  18  19
ATOM     19  N24 OHT A 600      32.420  -0.946  25.976  0.00  0.00    +0.000 NA
ATOM     20  C25 OHT A 600      31.417  -0.905  27.041  0.00  0.00    +0.000 C 
ATOM     21  C26 OHT A 600      33.339   0.181  26.172  0.00  0.00    +0.000 C 
ENDBRANCH  18  19
ENDBRANCH  17  18
ENDBRANCH  16  17
ENDBRANCH  13  16
ENDBRANCH   1  10
BRANCH   1  22
ATOM     22  C8  OHT A 600      33.282  -2.991  18.079  0.00  0.00    +0.000 C 
BRANCH  22  23
ATOM     23  C11 OHT A 600      33.411  -4.233  17.257  0.00  0.00    +0.000 A 
ATOM     24  C12 OHT A 600      33.500  -5.494  17.832  0.00  0.00    +0.000 A 
ATOM     25  C13 OHT A 600      33.669  -6.647  17.057  0.00  0.00    +0.000 A 
ATOM     26  C14 OHT A 600      33.752  -6.556  15.688  0.00  0.00    +0.000 A 
ATOM     27  C15 OHT A 600      33.667  -5.315  15.088  0.00  0.00    +0.000 A 
ATOM     28  C16 OHT A 600      33.497  -4.159  15.850  0.00  0.00    +0.000 A 
ENDBRANCH  22  23
BRANCH  22  29
ATOM     29  C9  OHT A 600      32.054  -2.168  17.748  0.00  0.00    +0.000 C 
ATOM     30  C10 OHT A 600      30.778  -2.879  18.108  0.00  0.00    +0.000 C 
ENDBRANCH  22  29
ENDBRANCH   1  22
TORSDOF 10
ENDMDL
