CHEMBL135


 22 25  0  0  0  0  0  0  0  0999 V2000
   27.9941    0.8732   26.7896 C   0  0  0  0  0  0  0  0  0  0  0  0
   28.0127   -0.4149   27.6742 C   0  0  0  0  0  0  0  0  0  0  0  0
   28.5777   -0.0838   29.0722 C   0  0  0  0  0  0  0  0  0  0  0  0
   30.0869    0.2670   29.0072 C   0  0  0  0  0  0  0  0  0  0  0  0
   30.9387   -0.8028   28.2541 C   0  0  0  0  0  0  0  0  0  0  0  0
   32.4152   -0.4343   28.0976 C   0  0  0  0  0  0  0  0  0  0  0  0
   33.0900    0.3102   29.0897 C   0  0  0  0  0  0  0  0  0  0  0  0
   34.4568    0.5726   28.9845 C   0  0  0  0  0  0  0  0  0  0  0  0
   35.1881    0.0772   27.9035 C   0  0  0  0  0  0  0  0  0  0  0  0
   36.5514    0.3396   27.7878 O   0  0  0  0  0  0  0  0  0  0  0  0
   34.5495   -0.6921   26.9312 C   0  0  0  0  0  0  0  0  0  0  0  0
   33.1773   -0.9760   27.0252 C   0  0  0  0  0  0  0  0  0  0  0  0
   32.5486   -1.7857   25.9112 C   0  0  0  0  0  0  0  0  0  0  0  0
   31.1401   -2.2889   26.2380 C   0  0  0  0  0  0  0  0  0  0  0  0
   30.3172   -1.1599   26.8704 C   0  0  0  0  0  0  0  0  0  0  0  0
   28.8471   -1.5637   27.0894 C   0  0  0  0  0  0  0  0  0  0  0  0
   28.0255   -2.0802   25.9136 C   0  0  0  0  0  0  0  0  0  0  0  0
   26.5650   -1.9003   26.3685 C   0  0  0  0  0  0  0  0  0  0  0  0
   26.6160   -1.0726   27.6789 C   0  0  0  0  0  0  0  0  0  0  0  0
   25.5553   -0.1542   27.8128 O   0  0  0  0  0  0  0  0  0  0  0  0
   37.0447    0.8939   28.4779 H   0  0  0  0  0  0  0  0  0  0  0  0
   25.3961    0.2823   26.9369 H   0  0  0  0  0  0  0  0  0  0  0  0
  2  1  1  0  0  0
  2  3  1  0  0  0
  3  4  1  0  0  0
  4  5  1  0  0  0
  5  6  1  0  0  0
  6  7  2  0  0  0
  7  8  1  0  0  0
  8  9  2  0  0  0
  9 10  1  0  0  0
  9 11  1  0  0  0
 11 12  2  0  0  0
 12 13  1  0  0  0
 13 14  1  0  0  0
 14 15  1  0  0  0
 15 16  1  0  0  0
 16 17  1  0  0  0
 17 18  1  0  0  0
 18 19  1  0  0  0
 19 20  1  0  0  0
 16  2  1  0  0  0
 19  2  1  0  0  0
 15  5  1  0  0  0
 12  6  1  0  0  0
 10 21  1  0  0  0
 20 22  1  0  0  0
M  END
> <minimizedAffinity>
-9.76377

$$$$
CHEMBL135


 22 25  0  0  0  0  0  0  0  0999 V2000
   33.6417    0.7168   26.1974 C   0  0  0  0  0  0  0  0  0  0  0  0
   33.7178   -0.4445   27.2403 C   0  0  0  0  0  0  0  0  0  0  0  0
   33.2246   -1.7593   26.5989 C   0  0  0  0  0  0  0  0  0  0  0  0
   31.7033   -1.7115   26.3017 C   0  0  0  0  0  0  0  0  0  0  0  0
   30.8451   -1.2870   27.5347 C   0  0  0  0  0  0  0  0  0  0  0  0
   29.3506   -1.1441   27.2412 C   0  0  0  0  0  0  0  0  0  0  0  0
   28.7104   -1.9754   26.2961 C   0  0  0  0  0  0  0  0  0  0  0  0
   27.3318   -1.9001   26.0915 C   0  0  0  0  0  0  0  0  0  0  0  0
   26.5556   -1.0150   26.8418 C   0  0  0  0  0  0  0  0  0  0  0  0
   25.1798   -0.9292   26.6395 O   0  0  0  0  0  0  0  0  0  0  0  0
   27.1615   -0.2111   27.8068 C   0  0  0  0  0  0  0  0  0  0  0  0
   28.5456   -0.2802   28.0349 C   0  0  0  0  0  0  0  0  0  0  0  0
   29.1348    0.6510   29.0729 C   0  0  0  0  0  0  0  0  0  0  0  0
   30.5760    0.3070   29.4583 C   0  0  0  0  0  0  0  0  0  0  0  0
   31.3964    0.0115   28.1968 C   0  0  0  0  0  0  0  0  0  0  0  0
   32.8894   -0.2006   28.5100 C   0  0  0  0  0  0  0  0  0  0  0  0
   33.6577    0.8717   29.2742 C   0  0  0  0  0  0  0  0  0  0  0  0
   35.1355    0.5671   28.9648 C   0  0  0  0  0  0  0  0  0  0  0  0
   35.1334   -0.5131   27.8521 C   0  0  0  0  0  0  0  0  0  0  0  0
   36.1690   -0.3592   26.9085 O   0  0  0  0  0  0  0  0  0  0  0  0
   24.7094   -1.5005   25.9472 H   0  0  0  0  0  0  0  0  0  0  0  0
   36.2621    0.6031   26.6883 H   0  0  0  0  0  0  0  0  0  0  0  0
  2  1  1  0  0  0
  2  3  1  0  0  0
  3  4  1  0  0  0
  4  5  1  0  0  0
  5  6  1  0  0  0
  6  7  2  0  0  0
  7  8  1  0  0  0
  8  9  2  0  0  0
  9 10  1  0  0  0
  9 11  1  0  0  0
 11 12  2  0  0  0
 12 13  1  0  0  0
 13 14  1  0  0  0
 14 15  1  0  0  0
 15 16  1  0  0  0
 16 17  1  0  0  0
 17 18  1  0  0  0
 18 19  1  0  0  0
 19 20  1  0  0  0
 16  2  1  0  0  0
 19  2  1  0  0  0
 15  5  1  0  0  0
 12  6  1  0  0  0
 10 21  1  0  0  0
 20 22  1  0  0  0
M  END
> <minimizedAffinity>
-9.62044

$$$$
CHEMBL135


 22 25  0  0  0  0  0  0  0  0999 V2000
   33.0201   -0.4106   29.3908 C   0  0  0  0  0  0  0  0  0  0  0  0
   33.1175    0.4825   28.1122 C   0  0  0  0  0  0  0  0  0  0  0  0
   32.2041    1.7178   28.2637 C   0  0  0  0  0  0  0  0  0  0  0  0
   30.7048    1.3218   28.2493 C   0  0  0  0  0  0  0  0  0  0  0  0
   30.3119    0.4316   27.0285 C   0  0  0  0  0  0  0  0  0  0  0  0
   28.8591   -0.0473   27.0414 C   0  0  0  0  0  0  0  0  0  0  0  0
   27.8308    0.7575   27.5791 C   0  0  0  0  0  0  0  0  0  0  0  0
   26.4961    0.3550   27.5136 C   0  0  0  0  0  0  0  0  0  0  0  0
   26.1518   -0.8445   26.8877 C   0  0  0  0  0  0  0  0  0  0  0  0
   24.8225   -1.2565   26.8233 O   0  0  0  0  0  0  0  0  0  0  0  0
   27.1472   -1.6370   26.3169 C   0  0  0  0  0  0  0  0  0  0  0  0
   28.4947   -1.2437   26.3631 C   0  0  0  0  0  0  0  0  0  0  0  0
   29.5207   -2.1757   25.7544 C   0  0  0  0  0  0  0  0  0  0  0  0
   30.9045   -1.5417   25.5902 C   0  0  0  0  0  0  0  0  0  0  0  0
   31.2820   -0.7770   26.8648 C   0  0  0  0  0  0  0  0  0  0  0  0
   32.7237   -0.2376   26.8144 C   0  0  0  0  0  0  0  0  0  0  0  0
   33.8764   -1.1961   26.5377 C   0  0  0  0  0  0  0  0  0  0  0  0
   35.1206   -0.4436   27.0459 C   0  0  0  0  0  0  0  0  0  0  0  0
   34.5956    0.8035   27.8035 C   0  0  0  0  0  0  0  0  0  0  0  0
   35.3551    1.1379   28.9428 O   0  0  0  0  0  0  0  0  0  0  0  0
   24.0760   -0.7027   27.2270 H   0  0  0  0  0  0  0  0  0  0  0  0
   35.5904    0.3054   29.4273 H   0  0  0  0  0  0  0  0  0  0  0  0
  2  1  1  0  0  0
  2  3  1  0  0  0
  3  4  1  0  0  0
  4  5  1  0  0  0
  5  6  1  0  0  0
  6  7  2  0  0  0
  7  8  1  0  0  0
  8  9  2  0  0  0
  9 10  1  0  0  0
  9 11  1  0  0  0
 11 12  2  0  0  0
 12 13  1  0  0  0
 13 14  1  0  0  0
 14 15  1  0  0  0
 15 16  1  0  0  0
 16 17  1  0  0  0
 17 18  1  0  0  0
 18 19  1  0  0  0
 19 20  1  0  0  0
 16  2  1  0  0  0
 19  2  1  0  0  0
 15  5  1  0  0  0
 12  6  1  0  0  0
 10 21  1  0  0  0
 20 22  1  0  0  0
M  END
> <minimizedAffinity>
-9.39827

$$$$
CHEMBL135


 22 25  0  0  0  0  0  0  0  0999 V2000
   27.8797   -1.4149   26.0166 C   0  0  0  0  0  0  0  0  0  0  0  0
   27.6463   -0.3955   27.1778 C   0  0  0  0  0  0  0  0  0  0  0  0
   27.9813    1.0330   26.6976 C   0  0  0  0  0  0  0  0  0  0  0  0
   29.5007    1.2042   26.4382 C   0  0  0  0  0  0  0  0  0  0  0  0
   30.3882    0.7520   27.6403 C   0  0  0  0  0  0  0  0  0  0  0  0
   31.8928    0.8256   27.3734 C   0  0  0  0  0  0  0  0  0  0  0  0
   32.4376    1.8291   26.5426 C   0  0  0  0  0  0  0  0  0  0  0  0
   33.8175    1.9454   26.3685 C   0  0  0  0  0  0  0  0  0  0  0  0
   34.6873    1.0830   27.0382 C   0  0  0  0  0  0  0  0  0  0  0  0
   36.0657    1.1884   26.8651 O   0  0  0  0  0  0  0  0  0  0  0  0
   34.1727    0.1085   27.8928 C   0  0  0  0  0  0  0  0  0  0  0  0
   32.7879   -0.0172   28.0895 C   0  0  0  0  0  0  0  0  0  0  0  0
   32.3047   -1.1234   29.0031 C   0  0  0  0  0  0  0  0  0  0  0  0
   30.8270   -1.0026   29.3846 C   0  0  0  0  0  0  0  0  0  0  0  0
   29.9933   -0.6698   28.1412 C   0  0  0  0  0  0  0  0  0  0  0  0
   28.4814   -0.6773   28.4352 C   0  0  0  0  0  0  0  0  0  0  0  0
   27.8418   -1.9138   29.0564 C   0  0  0  0  0  0  0  0  0  0  0  0
   26.3419   -1.7586   28.7422 C   0  0  0  0  0  0  0  0  0  0  0  0
   26.2250   -0.5685   27.7548 C   0  0  0  0  0  0  0  0  0  0  0  0
   25.2292   -0.7408   26.7723 O   0  0  0  0  0  0  0  0  0  0  0  0
   36.4709    1.8865   26.2524 H   0  0  0  0  0  0  0  0  0  0  0  0
   25.2590   -1.6766   26.4458 H   0  0  0  0  0  0  0  0  0  0  0  0
  2  1  1  0  0  0
  2  3  1  0  0  0
  3  4  1  0  0  0
  4  5  1  0  0  0
  5  6  1  0  0  0
  6  7  2  0  0  0
  7  8  1  0  0  0
  8  9  2  0  0  0
  9 10  1  0  0  0
  9 11  1  0  0  0
 11 12  2  0  0  0
 12 13  1  0  0  0
 13 14  1  0  0  0
 14 15  1  0  0  0
 15 16  1  0  0  0
 16 17  1  0  0  0
 17 18  1  0  0  0
 18 19  1  0  0  0
 19 20  1  0  0  0
 16  2  1  0  0  0
 19  2  1  0  0  0
 15  5  1  0  0  0
 12  6  1  0  0  0
 10 21  1  0  0  0
 20 22  1  0  0  0
M  END
> <minimizedAffinity>
-9.37733

$$$$
CHEMBL135


 22 25  0  0  0  0  0  0  0  0999 V2000
   28.3030   -1.9560   28.8424 C   0  0  0  0  0  0  0  0  0  0  0  0
   28.1522   -1.5412   27.3434 C   0  0  0  0  0  0  0  0  0  0  0  0
   29.0406   -2.4408   26.4576 C   0  0  0  0  0  0  0  0  0  0  0  0
   30.5478   -2.1692   26.7022 C   0  0  0  0  0  0  0  0  0  0  0  0
   30.9293   -0.6591   26.5963 C   0  0  0  0  0  0  0  0  0  0  0  0
   32.3926   -0.3561   26.9238 C   0  0  0  0  0  0  0  0  0  0  0  0
   33.4156   -1.2780   26.6116 C   0  0  0  0  0  0  0  0  0  0  0  0
   34.7572   -0.9639   26.8342 C   0  0  0  0  0  0  0  0  0  0  0  0
   35.1125    0.2849   27.3472 C   0  0  0  0  0  0  0  0  0  0  0  0
   36.4488    0.6042   27.5780 O   0  0  0  0  0  0  0  0  0  0  0  0
   34.1211    1.2247   27.6277 C   0  0  0  0  0  0  0  0  0  0  0  0
   32.7667    0.9313   27.4003 C   0  0  0  0  0  0  0  0  0  0  0  0
   31.7469    1.9890   27.7650 C   0  0  0  0  0  0  0  0  0  0  0  0
   30.3452    1.7040   27.2194 C   0  0  0  0  0  0  0  0  0  0  0  0
   29.9833    0.2325   27.4557 C   0  0  0  0  0  0  0  0  0  0  0  0
   28.5287   -0.0802   27.0575 C   0  0  0  0  0  0  0  0  0  0  0  0
   27.3916    0.7381   27.6586 C   0  0  0  0  0  0  0  0  0  0  0  0
   26.1440   -0.1397   27.4454 C   0  0  0  0  0  0  0  0  0  0  0  0
   26.6596   -1.5158   26.9500 C   0  0  0  0  0  0  0  0  0  0  0  0
   25.9224   -2.6106   27.4444 O   0  0  0  0  0  0  0  0  0  0  0  0
   37.1926   -0.0560   27.3835 H   0  0  0  0  0  0  0  0  0  0  0  0
   25.7188   -2.4542   28.4021 H   0  0  0  0  0  0  0  0  0  0  0  0
  2  1  1  0  0  0
  2  3  1  0  0  0
  3  4  1  0  0  0
  4  5  1  0  0  0
  5  6  1  0  0  0
  6  7  2  0  0  0
  7  8  1  0  0  0
  8  9  2  0  0  0
  9 10  1  0  0  0
  9 11  1  0  0  0
 11 12  2  0  0  0
 12 13  1  0  0  0
 13 14  1  0  0  0
 14 15  1  0  0  0
 15 16  1  0  0  0
 16 17  1  0  0  0
 17 18  1  0  0  0
 18 19  1  0  0  0
 19 20  1  0  0  0
 16  2  1  0  0  0
 19  2  1  0  0  0
 15  5  1  0  0  0
 12  6  1  0  0  0
 10 21  1  0  0  0
 20 22  1  0  0  0
M  END
> <minimizedAffinity>
-9.17559

$$$$
CHEMBL135


 22 25  0  0  0  0  0  0  0  0999 V2000
   36.3766    0.2179   18.8882 C   0  0  0  0  0  0  0  0  0  0  0  0
   36.6371   -1.0338   17.9898 C   0  0  0  0  0  0  0  0  0  0  0  0
   35.7428   -0.9732   16.7328 C   0  0  0  0  0  0  0  0  0  0  0  0
   34.2451   -1.1574   17.0910 C   0  0  0  0  0  0  0  0  0  0  0  0
   33.9688   -2.4223   17.9632 C   0  0  0  0  0  0  0  0  0  0  0  0
   32.5122   -2.5748   18.4055 C   0  0  0  0  0  0  0  0  0  0  0  0
   31.4505   -2.1471   17.5785 C   0  0  0  0  0  0  0  0  0  0  0  0
   30.1219   -2.3639   17.9469 C   0  0  0  0  0  0  0  0  0  0  0  0
   29.8203   -3.0349   19.1333 C   0  0  0  0  0  0  0  0  0  0  0  0
   28.4967   -3.2500   19.5113 O   0  0  0  0  0  0  0  0  0  0  0  0
   30.8534   -3.4991   19.9470 C   0  0  0  0  0  0  0  0  0  0  0  0
   32.1965   -3.3002   19.5880 C   0  0  0  0  0  0  0  0  0  0  0  0
   33.2608   -3.7999   20.5415 C   0  0  0  0  0  0  0  0  0  0  0  0
   34.6693   -3.8040   19.9415 C   0  0  0  0  0  0  0  0  0  0  0  0
   34.9213   -2.4885   19.1947 C   0  0  0  0  0  0  0  0  0  0  0  0
   36.3724   -2.3737   18.6914 C   0  0  0  0  0  0  0  0  0  0  0  0
   37.5251   -2.5297   19.6769 C   0  0  0  0  0  0  0  0  0  0  0  0
   38.7231   -1.8800   18.9591 C   0  0  0  0  0  0  0  0  0  0  0  0
   38.1477   -1.1738   17.7041 C   0  0  0  0  0  0  0  0  0  0  0  0
   38.7838    0.0456   17.3962 O   0  0  0  0  0  0  0  0  0  0  0  0
   27.7237   -2.9265   18.9416 H   0  0  0  0  0  0  0  0  0  0  0  0
   38.9436    0.5456   18.2374 H   0  0  0  0  0  0  0  0  0  0  0  0
  2  1  1  0  0  0
  2  3  1  0  0  0
  3  4  1  0  0  0
  4  5  1  0  0  0
  5  6  1  0  0  0
  6  7  2  0  0  0
  7  8  1  0  0  0
  8  9  2  0  0  0
  9 10  1  0  0  0
  9 11  1  0  0  0
 11 12  2  0  0  0
 12 13  1  0  0  0
 13 14  1  0  0  0
 14 15  1  0  0  0
 15 16  1  0  0  0
 16 17  1  0  0  0
 17 18  1  0  0  0
 18 19  1  0  0  0
 19 20  1  0  0  0
 16  2  1  0  0  0
 19  2  1  0  0  0
 15  5  1  0  0  0
 12  6  1  0  0  0
 10 21  1  0  0  0
 20 22  1  0  0  0
M  END
> <minimizedAffinity>
-8.48501

$$$$
CHEMBL135


 22 25  0  0  0  0  0  0  0  0999 V2000
   38.2049   -2.1671   16.7460 C   0  0  0  0  0  0  0  0  0  0  0  0
   37.7407   -0.7790   17.2934 C   0  0  0  0  0  0  0  0  0  0  0  0
   37.9836   -0.7072   18.8163 C   0  0  0  0  0  0  0  0  0  0  0  0
   37.0458   -1.6717   19.5879 C   0  0  0  0  0  0  0  0  0  0  0  0
   35.5400   -1.5028   19.2121 C   0  0  0  0  0  0  0  0  0  0  0  0
   34.6061   -2.5054   19.8925 C   0  0  0  0  0  0  0  0  0  0  0  0
   34.8711   -2.9803   21.1957 C   0  0  0  0  0  0  0  0  0  0  0  0
   33.9742   -3.8290   21.8463 C   0  0  0  0  0  0  0  0  0  0  0  0
   32.7810   -4.2025   21.2255 C   0  0  0  0  0  0  0  0  0  0  0  0
   31.8831   -5.0541   21.8654 O   0  0  0  0  0  0  0  0  0  0  0  0
   32.4814   -3.7154   19.9535 C   0  0  0  0  0  0  0  0  0  0  0  0
   33.3660   -2.8518   19.2872 C   0  0  0  0  0  0  0  0  0  0  0  0
   32.9881   -2.3957   17.8940 C   0  0  0  0  0  0  0  0  0  0  0  0
   33.8506   -1.2445   17.3702 C   0  0  0  0  0  0  0  0  0  0  0  0
   35.3289   -1.5233   17.6683 C   0  0  0  0  0  0  0  0  0  0  0  0
   36.2585   -0.4694   17.0381 C   0  0  0  0  0  0  0  0  0  0  0  0
   36.1730   -0.1890   15.5421 C   0  0  0  0  0  0  0  0  0  0  0  0
   37.5137    0.4933   15.2109 C   0  0  0  0  0  0  0  0  0  0  0  0
   38.3965    0.3563   16.4784 C   0  0  0  0  0  0  0  0  0  0  0  0
   39.7614    0.1415   16.2000 O   0  0  0  0  0  0  0  0  0  0  0  0
   32.0708   -5.4240   22.7901 H   0  0  0  0  0  0  0  0  0  0  0  0
   39.8385   -0.5023   15.4498 H   0  0  0  0  0  0  0  0  0  0  0  0
  2  1  1  0  0  0
  2  3  1  0  0  0
  3  4  1  0  0  0
  4  5  1  0  0  0
  5  6  1  0  0  0
  6  7  2  0  0  0
  7  8  1  0  0  0
  8  9  2  0  0  0
  9 10  1  0  0  0
  9 11  1  0  0  0
 11 12  2  0  0  0
 12 13  1  0  0  0
 13 14  1  0  0  0
 14 15  1  0  0  0
 15 16  1  0  0  0
 16 17  1  0  0  0
 17 18  1  0  0  0
 18 19  1  0  0  0
 19 20  1  0  0  0
 16  2  1  0  0  0
 19  2  1  0  0  0
 15  5  1  0  0  0
 12  6  1  0  0  0
 10 21  1  0  0  0
 20 22  1  0  0  0
M  END
> <minimizedAffinity>
-7.97216

$$$$
CHEMBL135


 22 25  0  0  0  0  0  0  0  0999 V2000
   38.0189   -0.5211   18.9243 C   0  0  0  0  0  0  0  0  0  0  0  0
   37.0054    0.4336   18.2148 C   0  0  0  0  0  0  0  0  0  0  0  0
   35.5761    0.1578   18.7289 C   0  0  0  0  0  0  0  0  0  0  0  0
   35.0643   -1.2318   18.2684 C   0  0  0  0  0  0  0  0  0  0  0  0
   35.2038   -1.4640   16.7310 C   0  0  0  0  0  0  0  0  0  0  0  0
   34.7905   -2.8618   16.2663 C   0  0  0  0  0  0  0  0  0  0  0  0
   33.7472   -3.5646   16.9080 C   0  0  0  0  0  0  0  0  0  0  0  0
   33.3160   -4.8028   16.4297 C   0  0  0  0  0  0  0  0  0  0  0  0
   33.8947   -5.3569   15.2865 C   0  0  0  0  0  0  0  0  0  0  0  0
   33.4743   -6.5952   14.8061 O   0  0  0  0  0  0  0  0  0  0  0  0
   34.9010   -4.6629   14.6153 C   0  0  0  0  0  0  0  0  0  0  0  0
   35.3410   -3.4109   15.0748 C   0  0  0  0  0  0  0  0  0  0  0  0
   36.4630   -2.7369   14.3141 C   0  0  0  0  0  0  0  0  0  0  0  0
   36.6735   -1.2710   14.7020 C   0  0  0  0  0  0  0  0  0  0  0  0
   36.6396   -1.1258   16.2283 C   0  0  0  0  0  0  0  0  0  0  0  0
   36.9886    0.3031   16.6849 C   0  0  0  0  0  0  0  0  0  0  0  0
   38.2952    0.9413   16.2269 C   0  0  0  0  0  0  0  0  0  0  0  0
   38.5270    2.0849   17.2324 C   0  0  0  0  0  0  0  0  0  0  0  0
   37.4729    1.8982   18.3544 C   0  0  0  0  0  0  0  0  0  0  0  0
   37.9484    2.2234   19.6408 O   0  0  0  0  0  0  0  0  0  0  0  0
   32.7447   -7.1237   15.2701 H   0  0  0  0  0  0  0  0  0  0  0  0
   38.8704    1.8726   19.7403 H   0  0  0  0  0  0  0  0  0  0  0  0
  2  1  1  0  0  0
  2  3  1  0  0  0
  3  4  1  0  0  0
  4  5  1  0  0  0
  5  6  1  0  0  0
  6  7  2  0  0  0
  7  8  1  0  0  0
  8  9  2  0  0  0
  9 10  1  0  0  0
  9 11  1  0  0  0
 11 12  2  0  0  0
 12 13  1  0  0  0
 13 14  1  0  0  0
 14 15  1  0  0  0
 15 16  1  0  0  0
 16 17  1  0  0  0
 17 18  1  0  0  0
 18 19  1  0  0  0
 19 20  1  0  0  0
 16  2  1  0  0  0
 19  2  1  0  0  0
 15  5  1  0  0  0
 12  6  1  0  0  0
 10 21  1  0  0  0
 20 22  1  0  0  0
M  END
> <minimizedAffinity>
-7.75927

$$$$
CHEMBL135


 22 25  0  0  0  0  0  0  0  0999 V2000
   27.8848   -2.1619   26.4598 C   0  0  0  0  0  0  0  0  0  0  0  0
   28.6751   -0.8213   26.6023 C   0  0  0  0  0  0  0  0  0  0  0  0
   28.8870   -0.1863   25.2113 C   0  0  0  0  0  0  0  0  0  0  0  0
   29.8602   -1.0269   24.3446 C   0  0  0  0  0  0  0  0  0  0  0  0
   31.2056   -1.3539   25.0657 C   0  0  0  0  0  0  0  0  0  0  0  0
   32.1440   -2.2590   24.2654 C   0  0  0  0  0  0  0  0  0  0  0  0
   32.1959   -2.1911   22.8558 C   0  0  0  0  0  0  0  0  0  0  0  0
   33.1123   -2.9572   22.1338 C   0  0  0  0  0  0  0  0  0  0  0  0
   34.0156   -3.7876   22.7996 C   0  0  0  0  0  0  0  0  0  0  0  0
   34.9294   -4.5602   22.0861 O   0  0  0  0  0  0  0  0  0  0  0  0
   34.0071   -3.8420   24.1930 C   0  0  0  0  0  0  0  0  0  0  0  0
   33.0999   -3.0705   24.9376 C   0  0  0  0  0  0  0  0  0  0  0  0
   33.1270   -3.2124   26.4445 C   0  0  0  0  0  0  0  0  0  0  0  0
   32.3216   -2.1359   27.1768 C   0  0  0  0  0  0  0  0  0  0  0  0
   30.9649   -1.9418   26.4887 C   0  0  0  0  0  0  0  0  0  0  0  0
   30.0520   -0.9740   27.2646 C   0  0  0  0  0  0  0  0  0  0  0  0
   29.7478   -1.2418   28.7343 C   0  0  0  0  0  0  0  0  0  0  0  0
   28.4778   -0.4155   29.0114 C   0  0  0  0  0  0  0  0  0  0  0  0
   27.9809    0.0940   27.6336 C   0  0  0  0  0  0  0  0  0  0  0  0
   26.5771    0.1258   27.5119 O   0  0  0  0  0  0  0  0  0  0  0  0
   34.9619   -4.5421   21.0735 H   0  0  0  0  0  0  0  0  0  0  0  0
   26.2008   -0.6955   27.9207 H   0  0  0  0  0  0  0  0  0  0  0  0
  2  1  1  0  0  0
  2  3  1  0  0  0
  3  4  1  0  0  0
  4  5  1  0  0  0
  5  6  1  0  0  0
  6  7  2  0  0  0
  7  8  1  0  0  0
  8  9  2  0  0  0
  9 10  1  0  0  0
  9 11  1  0  0  0
 11 12  2  0  0  0
 12 13  1  0  0  0
 13 14  1  0  0  0
 14 15  1  0  0  0
 15 16  1  0  0  0
 16 17  1  0  0  0
 17 18  1  0  0  0
 18 19  1  0  0  0
 19 20  1  0  0  0
 16  2  1  0  0  0
 19  2  1  0  0  0
 15  5  1  0  0  0
 12  6  1  0  0  0
 10 21  1  0  0  0
 20 22  1  0  0  0
M  END
> <minimizedAffinity>
-7.72981

$$$$
CHEMBL362718


 35 39  0  0  0  0  0  0  0  0999 V2000
   36.3685   -3.5022   17.8711 C   0  0  0  0  0  0  0  0  0  0  0  0
   37.3599   -3.0211   16.4085 S   0  0  0  0  0  0  0  0  0  0  0  0
   36.6490   -1.3926   16.0866 C   0  0  0  0  0  0  0  0  0  0  0  0
   36.8413   -0.8405   14.8127 C   0  0  0  0  0  0  0  0  0  0  0  0
   36.3004    0.4068   14.4874 C   0  0  0  0  0  0  0  0  0  0  0  0
   36.5109    0.9379   13.2168 O   0  0  0  0  0  0  0  0  0  0  0  0
   35.5515    1.1082   15.4390 C   0  0  0  0  0  0  0  0  0  0  0  0
   35.3405    0.5595   16.7055 C   0  0  0  0  0  0  0  0  0  0  0  0
   35.8819   -0.6873   17.0391 C   0  0  0  0  0  0  0  0  0  0  0  0
   35.5909   -1.2167   18.2984 O   0  0  0  0  0  0  0  0  0  0  0  0
   36.2684   -2.3318   18.8670 C   0  0  0  0  0  0  0  0  0  0  0  0
   36.1309    1.8384   12.9496 H   0  0  0  0  0  0  0  0  0  0  0  0
   31.3004   -5.9510   16.7690 O   0  0  0  0  0  0  0  0  0  0  0  0
   32.5365   -5.3611   17.0226 C   0  0  0  0  0  0  0  0  0  0  0  0
   32.8070   -4.0840   16.5260 C   0  0  0  0  0  0  0  0  0  0  0  0
   34.0410   -3.4761   16.7748 C   0  0  0  0  0  0  0  0  0  0  0  0
   35.0317   -4.1442   17.5217 C   0  0  0  0  0  0  0  0  0  0  0  0
   34.7442   -5.4301   18.0198 C   0  0  0  0  0  0  0  0  0  0  0  0
   33.5088   -6.0334   17.7712 C   0  0  0  0  0  0  0  0  0  0  0  0
   31.0735   -6.8754   17.1172 H   0  0  0  0  0  0  0  0  0  0  0  0
   35.5950   -2.7537   20.1552 C   0  0  0  0  0  0  0  0  0  0  0  0
   34.2716   -2.3726   20.4401 C   0  0  0  0  0  0  0  0  0  0  0  0
   33.6402   -2.8242   21.6016 C   0  0  0  0  0  0  0  0  0  0  0  0
   34.3103   -3.6677   22.4936 C   0  0  0  0  0  0  0  0  0  0  0  0
   35.6317   -4.0588   22.2080 C   0  0  0  0  0  0  0  0  0  0  0  0
   36.2640   -3.6091   21.0454 C   0  0  0  0  0  0  0  0  0  0  0  0
   33.6301   -4.0956   23.6424 O   0  0  0  0  0  0  0  0  0  0  0  0
   32.5262   -3.4111   24.2297 C   0  0  0  0  0  0  0  0  0  0  0  0
   32.7236   -3.2896   25.7452 C   0  0  0  0  0  0  0  0  0  0  0  0
   33.2278   -1.9512   26.1333 N   0  0  0  0  0  0  0  0  0  0  0  0
   32.6681   -0.8822   25.2666 C   0  0  0  0  0  0  0  0  0  0  0  0
   32.7848    0.5095   25.8929 C   0  0  0  0  0  0  0  0  0  0  0  0
   31.6573    0.7007   27.3224 S   0  0  0  0  0  0  0  0  0  0  0  0
   31.7030   -1.0328   27.9101 C   0  0  0  0  0  0  0  0  0  0  0  0
   33.0408   -1.7053   27.5866 C   0  0  0  0  0  0  0  0  0  0  0  0
 13 14  1  0  0  0
 14 15  2  0  0  0
 15 16  1  0  0  0
 16 17  2  0  0  0
 17  1  1  0  0  0
  1  2  1  0  0  0
  2  3  1  0  0  0
  3  4  2  0  0  0
  4  5  1  0  0  0
  5  6  1  0  0  0
  5  7  2  0  0  0
  7  8  1  0  0  0
  8  9  2  0  0  0
  9 10  1  0  0  0
 10 11  1  0  0  0
 11 21  1  0  0  0
 21 22  2  0  0  0
 22 23  1  0  0  0
 23 24  2  0  0  0
 24 27  1  0  0  0
 27 28  1  0  0  0
 28 29  1  0  0  0
 29 30  1  0  0  0
 30 31  1  0  0  0
 31 32  1  0  0  0
 32 33  1  0  0  0
 33 34  1  0  0  0
 34 35  1  0  0  0
 24 25  1  0  0  0
 25 26  2  0  0  0
 17 18  1  0  0  0
 18 19  2  0  0  0
 19 14  1  0  0  0
 11  1  1  0  0  0
 26 21  1  0  0  0
  9  3  1  0  0  0
 35 30  1  0  0  0
 13 20  1  0  0  0
  6 12  1  0  0  0
M  END
> <minimizedAffinity>
-8.80319

$$$$
CHEMBL362718


 35 39  0  0  0  0  0  0  0  0999 V2000
   37.6023   -1.2166   17.2529 C   0  0  0  0  0  0  0  0  0  0  0  0
   38.4146    0.0312   16.1866 S   0  0  0  0  0  0  0  0  0  0  0  0
   37.0040    1.1102   15.8594 C   0  0  0  0  0  0  0  0  0  0  0  0
   37.0883    1.9731   14.7580 C   0  0  0  0  0  0  0  0  0  0  0  0
   36.0248    2.8203   14.4333 C   0  0  0  0  0  0  0  0  0  0  0  0
   36.1350    3.6739   13.3380 O   0  0  0  0  0  0  0  0  0  0  0  0
   34.8604    2.8013   15.2091 C   0  0  0  0  0  0  0  0  0  0  0  0
   34.7601    1.9336   16.2985 C   0  0  0  0  0  0  0  0  0  0  0  0
   35.8222    1.0851   16.6314 C   0  0  0  0  0  0  0  0  0  0  0  0
   35.6471    0.1954   17.6938 O   0  0  0  0  0  0  0  0  0  0  0  0
   36.7077   -0.5323   18.3032 C   0  0  0  0  0  0  0  0  0  0  0  0
   35.3816    4.2987   13.0756 H   0  0  0  0  0  0  0  0  0  0  0  0
   34.9942   -5.5307   14.5174 O   0  0  0  0  0  0  0  0  0  0  0  0
   35.6356   -4.4796   15.1686 C   0  0  0  0  0  0  0  0  0  0  0  0
   35.1424   -3.1799   15.0334 C   0  0  0  0  0  0  0  0  0  0  0  0
   35.7718   -2.1143   15.6834 C   0  0  0  0  0  0  0  0  0  0  0  0
   36.9158   -2.3334   16.4764 C   0  0  0  0  0  0  0  0  0  0  0  0
   37.4003   -3.6496   16.6073 C   0  0  0  0  0  0  0  0  0  0  0  0
   36.7670   -4.7124   15.9581 C   0  0  0  0  0  0  0  0  0  0  0  0
   35.3267   -6.4847   14.5973 H   0  0  0  0  0  0  0  0  0  0  0  0
   36.1553   -1.5302   19.2982 C   0  0  0  0  0  0  0  0  0  0  0  0
   37.0099   -2.2612   20.1426 C   0  0  0  0  0  0  0  0  0  0  0  0
   36.4830   -3.1296   21.1018 C   0  0  0  0  0  0  0  0  0  0  0  0
   35.0995   -3.2790   21.2427 C   0  0  0  0  0  0  0  0  0  0  0  0
   34.2404   -2.5427   20.4058 C   0  0  0  0  0  0  0  0  0  0  0  0
   34.7663   -1.6722   19.4469 C   0  0  0  0  0  0  0  0  0  0  0  0
   34.6224   -4.1601   22.2232 O   0  0  0  0  0  0  0  0  0  0  0  0
   33.3332   -4.0769   22.8259 C   0  0  0  0  0  0  0  0  0  0  0  0
   33.4139   -3.2990   24.1445 C   0  0  0  0  0  0  0  0  0  0  0  0
   32.0899   -2.7844   24.5668 N   0  0  0  0  0  0  0  0  0  0  0  0
   31.8771   -2.9520   26.0275 C   0  0  0  0  0  0  0  0  0  0  0  0
   30.7660   -2.0507   26.5712 C   0  0  0  0  0  0  0  0  0  0  0  0
   31.2671   -0.2899   26.5701 S   0  0  0  0  0  0  0  0  0  0  0  0
   32.3386   -0.3361   25.0862 C   0  0  0  0  0  0  0  0  0  0  0  0
   31.8720   -1.3964   24.0837 C   0  0  0  0  0  0  0  0  0  0  0  0
 13 14  1  0  0  0
 14 15  2  0  0  0
 15 16  1  0  0  0
 16 17  2  0  0  0
 17  1  1  0  0  0
  1  2  1  0  0  0
  2  3  1  0  0  0
  3  4  2  0  0  0
  4  5  1  0  0  0
  5  6  1  0  0  0
  5  7  2  0  0  0
  7  8  1  0  0  0
  8  9  2  0  0  0
  9 10  1  0  0  0
 10 11  1  0  0  0
 11 21  1  0  0  0
 21 22  2  0  0  0
 22 23  1  0  0  0
 23 24  2  0  0  0
 24 27  1  0  0  0
 27 28  1  0  0  0
 28 29  1  0  0  0
 29 30  1  0  0  0
 30 31  1  0  0  0
 31 32  1  0  0  0
 32 33  1  0  0  0
 33 34  1  0  0  0
 34 35  1  0  0  0
 24 25  1  0  0  0
 25 26  2  0  0  0
 17 18  1  0  0  0
 18 19  2  0  0  0
 19 14  1  0  0  0
 11  1  1  0  0  0
 26 21  1  0  0  0
  9  3  1  0  0  0
 35 30  1  0  0  0
 13 20  1  0  0  0
  6 12  1  0  0  0
M  END
> <minimizedAffinity>
-8.78343

$$$$
CHEMBL362718


 35 39  0  0  0  0  0  0  0  0999 V2000
   37.0585   -2.3023   17.5441 C   0  0  0  0  0  0  0  0  0  0  0  0
   38.0027   -1.3934   16.2650 S   0  0  0  0  0  0  0  0  0  0  0  0
   36.8567   -0.0324   15.9565 C   0  0  0  0  0  0  0  0  0  0  0  0
   37.0041    0.6820   14.7596 C   0  0  0  0  0  0  0  0  0  0  0  0
   36.1383    1.7337   14.4460 C   0  0  0  0  0  0  0  0  0  0  0  0
   36.3093    2.4334   13.2536 O   0  0  0  0  0  0  0  0  0  0  0  0
   35.1080    2.0719   15.3304 C   0  0  0  0  0  0  0  0  0  0  0  0
   34.9425    1.3558   16.5176 C   0  0  0  0  0  0  0  0  0  0  0  0
   35.8078    0.3038   16.8396 C   0  0  0  0  0  0  0  0  0  0  0  0
   35.5616   -0.4175   18.0101 O   0  0  0  0  0  0  0  0  0  0  0  0
   36.4882   -1.3281   18.5915 C   0  0  0  0  0  0  0  0  0  0  0  0
   35.6977    3.1993   12.9966 H   0  0  0  0  0  0  0  0  0  0  0  0
   33.1625   -6.0375   15.6035 O   0  0  0  0  0  0  0  0  0  0  0  0
   34.1169   -5.1322   16.0615 C   0  0  0  0  0  0  0  0  0  0  0  0
   34.0460   -3.7947   15.6654 C   0  0  0  0  0  0  0  0  0  0  0  0
   34.9935   -2.8725   16.1192 C   0  0  0  0  0  0  0  0  0  0  0  0
   36.0371   -3.2788   16.9743 C   0  0  0  0  0  0  0  0  0  0  0  0
   36.0945   -4.6298   17.3690 C   0  0  0  0  0  0  0  0  0  0  0  0
   35.1442   -5.5481   16.9154 C   0  0  0  0  0  0  0  0  0  0  0  0
   33.1859   -7.0139   15.8743 H   0  0  0  0  0  0  0  0  0  0  0  0
   35.8444   -2.0664   19.7454 C   0  0  0  0  0  0  0  0  0  0  0  0
   34.4491   -2.0608   19.9216 C   0  0  0  0  0  0  0  0  0  0  0  0
   33.8637   -2.8008   20.9519 C   0  0  0  0  0  0  0  0  0  0  0  0
   34.6538   -3.5640   21.8174 C   0  0  0  0  0  0  0  0  0  0  0  0
   36.0497   -3.5795   21.6392 C   0  0  0  0  0  0  0  0  0  0  0  0
   36.6366   -2.8410   20.6078 C   0  0  0  0  0  0  0  0  0  0  0  0
   34.0162   -4.2915   22.8322 O   0  0  0  0  0  0  0  0  0  0  0  0
   32.8991   -3.8220   23.5831 C   0  0  0  0  0  0  0  0  0  0  0  0
   33.3730   -3.1780   24.8912 C   0  0  0  0  0  0  0  0  0  0  0  0
   32.6292   -1.9334   25.1979 N   0  0  0  0  0  0  0  0  0  0  0  0
   31.1906   -2.2033   25.4529 C   0  0  0  0  0  0  0  0  0  0  0  0
   30.4982   -1.0627   26.2026 C   0  0  0  0  0  0  0  0  0  0  0  0
   31.0665   -0.9564   27.9395 S   0  0  0  0  0  0  0  0  0  0  0  0
   32.7864   -1.5258   27.6747 C   0  0  0  0  0  0  0  0  0  0  0  0
   33.2953   -1.1594   26.2771 C   0  0  0  0  0  0  0  0  0  0  0  0
 13 14  1  0  0  0
 14 15  2  0  0  0
 15 16  1  0  0  0
 16 17  2  0  0  0
 17  1  1  0  0  0
  1  2  1  0  0  0
  2  3  1  0  0  0
  3  4  2  0  0  0
  4  5  1  0  0  0
  5  6  1  0  0  0
  5  7  2  0  0  0
  7  8  1  0  0  0
  8  9  2  0  0  0
  9 10  1  0  0  0
 10 11  1  0  0  0
 11 21  1  0  0  0
 21 22  2  0  0  0
 22 23  1  0  0  0
 23 24  2  0  0  0
 24 27  1  0  0  0
 27 28  1  0  0  0
 28 29  1  0  0  0
 29 30  1  0  0  0
 30 31  1  0  0  0
 31 32  1  0  0  0
 32 33  1  0  0  0
 33 34  1  0  0  0
 34 35  1  0  0  0
 24 25  1  0  0  0
 25 26  2  0  0  0
 17 18  1  0  0  0
 18 19  2  0  0  0
 19 14  1  0  0  0
 11  1  1  0  0  0
 26 21  1  0  0  0
  9  3  1  0  0  0
 35 30  1  0  0  0
 13 20  1  0  0  0
  6 12  1  0  0  0
M  END
> <minimizedAffinity>
-8.72067

$$$$
CHEMBL362718


 35 39  0  0  0  0  0  0  0  0999 V2000
   36.6369   -3.0602   17.6442 C   0  0  0  0  0  0  0  0  0  0  0  0
   35.7914   -4.1253   18.8708 S   0  0  0  0  0  0  0  0  0  0  0  0
   34.0865   -3.5922   18.6066 C   0  0  0  0  0  0  0  0  0  0  0  0
   33.1563   -3.8659   19.6188 C   0  0  0  0  0  0  0  0  0  0  0  0
   31.8240   -3.4628   19.4904 C   0  0  0  0  0  0  0  0  0  0  0  0
   30.9165   -3.7525   20.5069 O   0  0  0  0  0  0  0  0  0  0  0  0
   31.4154   -2.7708   18.3449 C   0  0  0  0  0  0  0  0  0  0  0  0
   32.3379   -2.4788   17.3382 C   0  0  0  0  0  0  0  0  0  0  0  0
   33.6726   -2.8824   17.4585 C   0  0  0  0  0  0  0  0  0  0  0  0
   34.5665   -2.5130   16.4507 O   0  0  0  0  0  0  0  0  0  0  0  0
   35.8723   -3.0607   16.3075 C   0  0  0  0  0  0  0  0  0  0  0  0
   29.9446   -3.4726   20.4449 H   0  0  0  0  0  0  0  0  0  0  0  0
   38.0059    2.2166   19.4270 O   0  0  0  0  0  0  0  0  0  0  0  0
   37.6752    0.9298   19.0087 C   0  0  0  0  0  0  0  0  0  0  0  0
   36.3636    0.4723   19.1539 C   0  0  0  0  0  0  0  0  0  0  0  0
   36.0141   -0.8151   18.7357 C   0  0  0  0  0  0  0  0  0  0  0  0
   36.9793   -1.6718   18.1702 C   0  0  0  0  0  0  0  0  0  0  0  0
   38.2974   -1.1963   18.0261 C   0  0  0  0  0  0  0  0  0  0  0  0
   38.6423    0.0918   18.4430 C   0  0  0  0  0  0  0  0  0  0  0  0
   38.9481    2.5780   19.3334 H   0  0  0  0  0  0  0  0  0  0  0  0
   36.6359   -2.3214   15.2298 C   0  0  0  0  0  0  0  0  0  0  0  0
   36.2410   -1.0378   14.8122 C   0  0  0  0  0  0  0  0  0  0  0  0
   36.9936   -0.3400   13.8643 C   0  0  0  0  0  0  0  0  0  0  0  0
   38.1540   -0.9026   13.3229 C   0  0  0  0  0  0  0  0  0  0  0  0
   38.5577   -2.1832   13.7445 C   0  0  0  0  0  0  0  0  0  0  0  0
   37.8066   -2.8817   14.6941 C   0  0  0  0  0  0  0  0  0  0  0  0
   38.8751   -0.1589   12.3782 O   0  0  0  0  0  0  0  0  0  0  0  0
   38.5364    1.1611   11.9599 C   0  0  0  0  0  0  0  0  0  0  0  0
   39.5146    2.1756   12.5636 C   0  0  0  0  0  0  0  0  0  0  0  0
   38.8108    3.2748   13.2654 N   0  0  0  0  0  0  0  0  0  0  0  0
   37.3360    3.1551   13.1313 C   0  0  0  0  0  0  0  0  0  0  0  0
   36.5780    3.9662   14.1849 C   0  0  0  0  0  0  0  0  0  0  0  0
   36.7590    3.2367   15.8542 S   0  0  0  0  0  0  0  0  0  0  0  0
   38.4510    2.5670   15.6519 C   0  0  0  0  0  0  0  0  0  0  0  0
   39.2775    3.4035   14.6700 C   0  0  0  0  0  0  0  0  0  0  0  0
 13 14  1  0  0  0
 14 15  2  0  0  0
 15 16  1  0  0  0
 16 17  2  0  0  0
 17  1  1  0  0  0
  1  2  1  0  0  0
  2  3  1  0  0  0
  3  4  2  0  0  0
  4  5  1  0  0  0
  5  6  1  0  0  0
  5  7  2  0  0  0
  7  8  1  0  0  0
  8  9  2  0  0  0
  9 10  1  0  0  0
 10 11  1  0  0  0
 11 21  1  0  0  0
 21 22  2  0  0  0
 22 23  1  0  0  0
 23 24  2  0  0  0
 24 27  1  0  0  0
 27 28  1  0  0  0
 28 29  1  0  0  0
 29 30  1  0  0  0
 30 31  1  0  0  0
 31 32  1  0  0  0
 32 33  1  0  0  0
 33 34  1  0  0  0
 34 35  1  0  0  0
 24 25  1  0  0  0
 25 26  2  0  0  0
 17 18  1  0  0  0
 18 19  2  0  0  0
 19 14  1  0  0  0
 11  1  1  0  0  0
 26 21  1  0  0  0
  9  3  1  0  0  0
 35 30  1  0  0  0
 13 20  1  0  0  0
  6 12  1  0  0  0
M  END
> <minimizedAffinity>
-8.48076

$$$$
CHEMBL362718


 35 39  0  0  0  0  0  0  0  0999 V2000
   33.3441   -3.0451   18.2429 C   0  0  0  0  0  0  0  0  0  0  0  0
   32.8325   -3.3125   16.5049 S   0  0  0  0  0  0  0  0  0  0  0  0
   33.4387   -4.9972   16.2695 C   0  0  0  0  0  0  0  0  0  0  0  0
   33.6113   -5.4472   14.9533 C   0  0  0  0  0  0  0  0  0  0  0  0
   34.0976   -6.7325   14.6975 C   0  0  0  0  0  0  0  0  0  0  0  0
   34.2541   -7.1595   13.3807 O   0  0  0  0  0  0  0  0  0  0  0  0
   34.4245   -7.5762   15.7649 C   0  0  0  0  0  0  0  0  0  0  0  0
   34.2717   -7.1316   17.0797 C   0  0  0  0  0  0  0  0  0  0  0  0
   33.7821   -5.8471   17.3432 C   0  0  0  0  0  0  0  0  0  0  0  0
   33.7049   -5.4313   18.6744 O   0  0  0  0  0  0  0  0  0  0  0  0
   32.9981   -4.2733   19.1050 C   0  0  0  0  0  0  0  0  0  0  0  0
   34.6057   -8.0844   13.1621 H   0  0  0  0  0  0  0  0  0  0  0  0
   38.7264   -1.2218   19.0194 O   0  0  0  0  0  0  0  0  0  0  0  0
   37.4188   -1.6570   18.8170 C   0  0  0  0  0  0  0  0  0  0  0  0
   37.1817   -2.7925   18.0390 C   0  0  0  0  0  0  0  0  0  0  0  0
   35.8757   -3.2450   17.8294 C   0  0  0  0  0  0  0  0  0  0  0  0
   34.7805   -2.5592   18.3914 C   0  0  0  0  0  0  0  0  0  0  0  0
   35.0342   -1.4178   19.1770 C   0  0  0  0  0  0  0  0  0  0  0  0
   36.3411   -0.9701   19.3864 C   0  0  0  0  0  0  0  0  0  0  0  0
   38.9310   -0.4027   19.5802 H   0  0  0  0  0  0  0  0  0  0  0  0
   33.2606   -4.0142   20.5729 C   0  0  0  0  0  0  0  0  0  0  0  0
   32.3114   -3.3542   21.3737 C   0  0  0  0  0  0  0  0  0  0  0  0
   32.5382   -3.1808   22.7413 C   0  0  0  0  0  0  0  0  0  0  0  0
   33.7069   -3.6673   23.3359 C   0  0  0  0  0  0  0  0  0  0  0  0
   34.6553   -4.3362   22.5400 C   0  0  0  0  0  0  0  0  0  0  0  0
   34.4289   -4.5119   21.1720 C   0  0  0  0  0  0  0  0  0  0  0  0
   33.8838   -3.4706   24.7127 O   0  0  0  0  0  0  0  0  0  0  0  0
   32.8297   -3.1920   25.6311 C   0  0  0  0  0  0  0  0  0  0  0  0
   32.7801   -1.6914   25.9413 C   0  0  0  0  0  0  0  0  0  0  0  0
   31.3888   -1.1870   26.0198 N   0  0  0  0  0  0  0  0  0  0  0  0
   30.4070   -2.2985   26.1080 C   0  0  0  0  0  0  0  0  0  0  0  0
   29.0456   -1.8450   26.6406 C   0  0  0  0  0  0  0  0  0  0  0  0
   29.1281   -1.4137   28.4178 S   0  0  0  0  0  0  0  0  0  0  0  0
   30.8460   -0.7809   28.4418 C   0  0  0  0  0  0  0  0  0  0  0  0
   31.2436   -0.1709   27.0939 C   0  0  0  0  0  0  0  0  0  0  0  0
 13 14  1  0  0  0
 14 15  2  0  0  0
 15 16  1  0  0  0
 16 17  2  0  0  0
 17  1  1  0  0  0
  1  2  1  0  0  0
  2  3  1  0  0  0
  3  4  2  0  0  0
  4  5  1  0  0  0
  5  6  1  0  0  0
  5  7  2  0  0  0
  7  8  1  0  0  0
  8  9  2  0  0  0
  9 10  1  0  0  0
 10 11  1  0  0  0
 11 21  1  0  0  0
 21 22  2  0  0  0
 22 23  1  0  0  0
 23 24  2  0  0  0
 24 27  1  0  0  0
 27 28  1  0  0  0
 28 29  1  0  0  0
 29 30  1  0  0  0
 30 31  1  0  0  0
 31 32  1  0  0  0
 32 33  1  0  0  0
 33 34  1  0  0  0
 34 35  1  0  0  0
 24 25  1  0  0  0
 25 26  2  0  0  0
 17 18  1  0  0  0
 18 19  2  0  0  0
 19 14  1  0  0  0
 11  1  1  0  0  0
 26 21  1  0  0  0
  9  3  1  0  0  0
 35 30  1  0  0  0
 13 20  1  0  0  0
  6 12  1  0  0  0
M  END
> <minimizedAffinity>
-8.29545

$$$$
CHEMBL362718


 35 39  0  0  0  0  0  0  0  0999 V2000
   33.3525   -2.9030   18.3533 C   0  0  0  0  0  0  0  0  0  0  0  0
   32.8807   -3.1278   16.5981 S   0  0  0  0  0  0  0  0  0  0  0  0
   33.4613   -4.8190   16.3455 C   0  0  0  0  0  0  0  0  0  0  0  0
   33.6592   -5.2472   15.0256 C   0  0  0  0  0  0  0  0  0  0  0  0
   34.1278   -6.5366   14.7573 C   0  0  0  0  0  0  0  0  0  0  0  0
   34.3100   -6.9415   13.4369 O   0  0  0  0  0  0  0  0  0  0  0  0
   34.4114   -7.4064   15.8162 C   0  0  0  0  0  0  0  0  0  0  0  0
   34.2332   -6.9838   17.1350 C   0  0  0  0  0  0  0  0  0  0  0  0
   33.7611   -5.6955   17.4109 C   0  0  0  0  0  0  0  0  0  0  0  0
   33.6575   -5.3034   18.7475 O   0  0  0  0  0  0  0  0  0  0  0  0
   32.9617   -4.1405   19.1824 C   0  0  0  0  0  0  0  0  0  0  0  0
   34.6498   -7.8687   13.2094 H   0  0  0  0  0  0  0  0  0  0  0  0
   38.8001   -1.1834   18.8670 O   0  0  0  0  0  0  0  0  0  0  0  0
   37.4782   -1.6084   18.7561 C   0  0  0  0  0  0  0  0  0  0  0  0
   36.4644   -0.8825   19.3855 C   0  0  0  0  0  0  0  0  0  0  0  0
   35.1322   -1.2931   19.2808 C   0  0  0  0  0  0  0  0  0  0  0  0
   34.7934   -2.4476   18.5475 C   0  0  0  0  0  0  0  0  0  0  0  0
   35.8253   -3.1682   17.9147 C   0  0  0  0  0  0  0  0  0  0  0  0
   37.1552   -2.7532   18.0194 C   0  0  0  0  0  0  0  0  0  0  0  0
   39.5575   -1.6875   18.4206 H   0  0  0  0  0  0  0  0  0  0  0  0
   33.1911   -3.9142   20.6613 C   0  0  0  0  0  0  0  0  0  0  0  0
   32.2011   -3.3232   21.4666 C   0  0  0  0  0  0  0  0  0  0  0  0
   32.4004   -3.1811   22.8420 C   0  0  0  0  0  0  0  0  0  0  0  0
   33.5819   -3.6312   23.4399 C   0  0  0  0  0  0  0  0  0  0  0  0
   34.5716   -4.2312   22.6392 C   0  0  0  0  0  0  0  0  0  0  0  0
   34.3727   -4.3756   21.2633 C   0  0  0  0  0  0  0  0  0  0  0  0
   33.7302   -3.4683   24.8245 O   0  0  0  0  0  0  0  0  0  0  0  0
   32.7763   -2.8295   25.6696 C   0  0  0  0  0  0  0  0  0  0  0  0
   32.7870   -1.3152   25.4307 C   0  0  0  0  0  0  0  0  0  0  0  0
   32.7465   -0.5531   26.7011 N   0  0  0  0  0  0  0  0  0  0  0  0
   33.3254   -1.3318   27.8261 C   0  0  0  0  0  0  0  0  0  0  0  0
   33.7196   -0.4513   29.0144 C   0  0  0  0  0  0  0  0  0  0  0  0
   35.1751    0.5893   28.6271 S   0  0  0  0  0  0  0  0  0  0  0  0
   34.8419    0.8306   26.8430 C   0  0  0  0  0  0  0  0  0  0  0  0
   33.3411    0.7987   26.5379 C   0  0  0  0  0  0  0  0  0  0  0  0
 13 14  1  0  0  0
 14 15  2  0  0  0
 15 16  1  0  0  0
 16 17  2  0  0  0
 17  1  1  0  0  0
  1  2  1  0  0  0
  2  3  1  0  0  0
  3  4  2  0  0  0
  4  5  1  0  0  0
  5  6  1  0  0  0
  5  7  2  0  0  0
  7  8  1  0  0  0
  8  9  2  0  0  0
  9 10  1  0  0  0
 10 11  1  0  0  0
 11 21  1  0  0  0
 21 22  2  0  0  0
 22 23  1  0  0  0
 23 24  2  0  0  0
 24 27  1  0  0  0
 27 28  1  0  0  0
 28 29  1  0  0  0
 29 30  1  0  0  0
 30 31  1  0  0  0
 31 32  1  0  0  0
 32 33  1  0  0  0
 33 34  1  0  0  0
 34 35  1  0  0  0
 24 25  1  0  0  0
 25 26  2  0  0  0
 17 18  1  0  0  0
 18 19  2  0  0  0
 19 14  1  0  0  0
 11  1  1  0  0  0
 26 21  1  0  0  0
  9  3  1  0  0  0
 35 30  1  0  0  0
 13 20  1  0  0  0
  6 12  1  0  0  0
M  END
> <minimizedAffinity>
-8.26766

$$$$
CHEMBL362718


 35 39  0  0  0  0  0  0  0  0999 V2000
   37.8266   -0.9265   17.0976 C   0  0  0  0  0  0  0  0  0  0  0  0
   38.6518    0.2634   15.9765 S   0  0  0  0  0  0  0  0  0  0  0  0
   37.2463    1.3250   15.5785 C   0  0  0  0  0  0  0  0  0  0  0  0
   37.3434    2.1292   14.4346 C   0  0  0  0  0  0  0  0  0  0  0  0
   36.2846    2.9592   14.0549 C   0  0  0  0  0  0  0  0  0  0  0  0
   36.4075    3.7545   12.9178 O   0  0  0  0  0  0  0  0  0  0  0  0
   35.1120    2.9816   14.8181 C   0  0  0  0  0  0  0  0  0  0  0  0
   34.9990    2.1720   15.9501 C   0  0  0  0  0  0  0  0  0  0  0  0
   36.0563    1.3411   16.3381 C   0  0  0  0  0  0  0  0  0  0  0  0
   35.8688    0.5081   17.4434 O   0  0  0  0  0  0  0  0  0  0  0  0
   36.9219   -0.1878   18.1012 C   0  0  0  0  0  0  0  0  0  0  0  0
   35.6578    4.3654   12.6152 H   0  0  0  0  0  0  0  0  0  0  0  0
   35.4082   -5.2482   14.2043 O   0  0  0  0  0  0  0  0  0  0  0  0
   35.9817   -4.1958   14.9141 C   0  0  0  0  0  0  0  0  0  0  0  0
   36.4434   -4.4107   16.2146 C   0  0  0  0  0  0  0  0  0  0  0  0
   37.0252   -3.3663   16.9392 C   0  0  0  0  0  0  0  0  0  0  0  0
   37.1469   -2.0817   16.3731 C   0  0  0  0  0  0  0  0  0  0  0  0
   36.6807   -1.8799   15.0592 C   0  0  0  0  0  0  0  0  0  0  0  0
   36.1021   -2.9268   14.3372 C   0  0  0  0  0  0  0  0  0  0  0  0
   35.0656   -5.1244   13.2585 H   0  0  0  0  0  0  0  0  0  0  0  0
   36.3575   -1.1319   19.1409 C   0  0  0  0  0  0  0  0  0  0  0  0
   34.9701   -1.3222   19.2706 C   0  0  0  0  0  0  0  0  0  0  0  0
   34.4660   -2.2461   20.1893 C   0  0  0  0  0  0  0  0  0  0  0  0
   35.3319   -3.0011   20.9870 C   0  0  0  0  0  0  0  0  0  0  0  0
   36.7212   -2.8204   20.8542 C   0  0  0  0  0  0  0  0  0  0  0  0
   37.2270   -1.8976   19.9343 C   0  0  0  0  0  0  0  0  0  0  0  0
   34.7748   -3.9175   21.8900 O   0  0  0  0  0  0  0  0  0  0  0  0
   33.4837   -4.5057   21.7509 C   0  0  0  0  0  0  0  0  0  0  0  0
   32.6318   -4.2133   22.9915 C   0  0  0  0  0  0  0  0  0  0  0  0
   32.9826   -2.9136   23.6114 N   0  0  0  0  0  0  0  0  0  0  0  0
   31.8811   -1.9261   23.4748 C   0  0  0  0  0  0  0  0  0  0  0  0
   32.0008   -0.7651   24.4648 C   0  0  0  0  0  0  0  0  0  0  0  0
   31.6680   -1.3075   26.1813 S   0  0  0  0  0  0  0  0  0  0  0  0
   32.3280   -3.0093   26.0379 C   0  0  0  0  0  0  0  0  0  0  0  0
   33.4584   -3.0932   25.0074 C   0  0  0  0  0  0  0  0  0  0  0  0
 13 14  1  0  0  0
 14 15  2  0  0  0
 15 16  1  0  0  0
 16 17  2  0  0  0
 17  1  1  0  0  0
  1  2  1  0  0  0
  2  3  1  0  0  0
  3  4  2  0  0  0
  4  5  1  0  0  0
  5  6  1  0  0  0
  5  7  2  0  0  0
  7  8  1  0  0  0
  8  9  2  0  0  0
  9 10  1  0  0  0
 10 11  1  0  0  0
 11 21  1  0  0  0
 21 22  2  0  0  0
 22 23  1  0  0  0
 23 24  2  0  0  0
 24 27  1  0  0  0
 27 28  1  0  0  0
 28 29  1  0  0  0
 29 30  1  0  0  0
 30 31  1  0  0  0
 31 32  1  0  0  0
 32 33  1  0  0  0
 33 34  1  0  0  0
 34 35  1  0  0  0
 24 25  1  0  0  0
 25 26  2  0  0  0
 17 18  1  0  0  0
 18 19  2  0  0  0
 19 14  1  0  0  0
 11  1  1  0  0  0
 26 21  1  0  0  0
  9  3  1  0  0  0
 35 30  1  0  0  0
 13 20  1  0  0  0
  6 12  1  0  0  0
M  END
> <minimizedAffinity>
-8.08041

$$$$
CHEMBL362718


 35 39  0  0  0  0  0  0  0  0999 V2000
   37.9888    0.1547   16.9893 C   0  0  0  0  0  0  0  0  0  0  0  0
   38.5051    1.6435   16.0561 S   0  0  0  0  0  0  0  0  0  0  0  0
   36.8833    2.3590   15.7116 C   0  0  0  0  0  0  0  0  0  0  0  0
   36.7947    3.2975   14.6742 C   0  0  0  0  0  0  0  0  0  0  0  0
   35.5669    3.8755   14.3389 C   0  0  0  0  0  0  0  0  0  0  0  0
   35.5054    4.8111   13.3086 O   0  0  0  0  0  0  0  0  0  0  0  0
   34.4123    3.5076   15.0386 C   0  0  0  0  0  0  0  0  0  0  0  0
   34.4871    2.5614   16.0627 C   0  0  0  0  0  0  0  0  0  0  0  0
   35.7136    1.9812   16.4061 C   0  0  0  0  0  0  0  0  0  0  0  0
   35.7229    0.9971   17.3973 O   0  0  0  0  0  0  0  0  0  0  0  0
   36.9053    0.5120   18.0237 C   0  0  0  0  0  0  0  0  0  0  0  0
   34.6308    5.2467   13.0403 H   0  0  0  0  0  0  0  0  0  0  0  0
   36.7452   -4.4569   13.8139 O   0  0  0  0  0  0  0  0  0  0  0  0
   37.0501   -3.3288   14.5720 C   0  0  0  0  0  0  0  0  0  0  0  0
   36.0703   -2.3574   14.7892 C   0  0  0  0  0  0  0  0  0  0  0  0
   36.3587   -1.2212   15.5509 C   0  0  0  0  0  0  0  0  0  0  0  0
   37.6416   -1.0349   16.1029 C   0  0  0  0  0  0  0  0  0  0  0  0
   38.6192   -2.0242   15.8793 C   0  0  0  0  0  0  0  0  0  0  0  0
   38.3265   -3.1596   15.1196 C   0  0  0  0  0  0  0  0  0  0  0  0
   37.4338   -5.1800   13.6402 H   0  0  0  0  0  0  0  0  0  0  0  0
   36.5801   -0.6653   18.9177 C   0  0  0  0  0  0  0  0  0  0  0  0
   37.6002   -1.4663   19.4615 C   0  0  0  0  0  0  0  0  0  0  0  0
   37.2891   -2.5087   20.3380 C   0  0  0  0  0  0  0  0  0  0  0  0
   35.9614   -2.7662   20.6944 C   0  0  0  0  0  0  0  0  0  0  0  0
   34.9382   -1.9615   20.1596 C   0  0  0  0  0  0  0  0  0  0  0  0
   35.2482   -0.9172   19.2839 C   0  0  0  0  0  0  0  0  0  0  0  0
   35.7036   -3.8215   21.5808 O   0  0  0  0  0  0  0  0  0  0  0  0
   35.0931   -5.0557   21.2118 C   0  0  0  0  0  0  0  0  0  0  0  0
   36.1443   -6.0193   20.6489 C   0  0  0  0  0  0  0  0  0  0  0  0
   35.7236   -6.6041   19.3538 N   0  0  0  0  0  0  0  0  0  0  0  0
   34.2485   -6.5555   19.1839 C   0  0  0  0  0  0  0  0  0  0  0  0
   33.8152   -6.7130   17.7244 C   0  0  0  0  0  0  0  0  0  0  0  0
   34.2518   -5.2392   16.7301 S   0  0  0  0  0  0  0  0  0  0  0  0
   35.7829   -4.7802   17.6231 C   0  0  0  0  0  0  0  0  0  0  0  0
   36.4784   -6.0066   18.2221 C   0  0  0  0  0  0  0  0  0  0  0  0
 13 14  1  0  0  0
 14 15  2  0  0  0
 15 16  1  0  0  0
 16 17  2  0  0  0
 17  1  1  0  0  0
  1  2  1  0  0  0
  2  3  1  0  0  0
  3  4  2  0  0  0
  4  5  1  0  0  0
  5  6  1  0  0  0
  5  7  2  0  0  0
  7  8  1  0  0  0
  8  9  2  0  0  0
  9 10  1  0  0  0
 10 11  1  0  0  0
 11 21  1  0  0  0
 21 22  2  0  0  0
 22 23  1  0  0  0
 23 24  2  0  0  0
 24 27  1  0  0  0
 27 28  1  0  0  0
 28 29  1  0  0  0
 29 30  1  0  0  0
 30 31  1  0  0  0
 31 32  1  0  0  0
 32 33  1  0  0  0
 33 34  1  0  0  0
 34 35  1  0  0  0
 24 25  1  0  0  0
 25 26  2  0  0  0
 17 18  1  0  0  0
 18 19  2  0  0  0
 19 14  1  0  0  0
 11  1  1  0  0  0
 26 21  1  0  0  0
  9  3  1  0  0  0
 35 30  1  0  0  0
 13 20  1  0  0  0
  6 12  1  0  0  0
M  END
> <minimizedAffinity>
-8.02967

$$$$
CHEMBL362718


 35 39  0  0  0  0  0  0  0  0999 V2000
   35.5868   -1.5755   16.5329 C   0  0  0  0  0  0  0  0  0  0  0  0
   34.3830   -2.9526   16.4417 S   0  0  0  0  0  0  0  0  0  0  0  0
   34.4901   -3.5577   18.1397 C   0  0  0  0  0  0  0  0  0  0  0  0
   34.0294   -4.8563   18.3965 C   0  0  0  0  0  0  0  0  0  0  0  0
   34.1021   -5.3969   19.6836 C   0  0  0  0  0  0  0  0  0  0  0  0
   33.6313   -6.6874   19.9155 O   0  0  0  0  0  0  0  0  0  0  0  0
   34.6484   -4.6387   20.7251 C   0  0  0  0  0  0  0  0  0  0  0  0
   35.1252   -3.3501   20.4763 C   0  0  0  0  0  0  0  0  0  0  0  0
   35.0524   -2.8013   19.1908 C   0  0  0  0  0  0  0  0  0  0  0  0
   35.5975   -1.5320   18.9841 O   0  0  0  0  0  0  0  0  0  0  0  0
   35.3714   -0.7512   17.8157 C   0  0  0  0  0  0  0  0  0  0  0  0
   33.6714   -7.1082   20.8364 H   0  0  0  0  0  0  0  0  0  0  0  0
   40.9440   -3.3843   15.5710 O   0  0  0  0  0  0  0  0  0  0  0  0
   39.6482   -2.9361   15.8165 C   0  0  0  0  0  0  0  0  0  0  0  0
   39.2261   -1.7172   15.2809 C   0  0  0  0  0  0  0  0  0  0  0  0
   37.9276   -1.2549   15.5143 C   0  0  0  0  0  0  0  0  0  0  0  0
   37.0296   -2.0057   16.2987 C   0  0  0  0  0  0  0  0  0  0  0  0
   37.4671   -3.2350   16.8296 C   0  0  0  0  0  0  0  0  0  0  0  0
   38.7648   -3.6949   16.5919 C   0  0  0  0  0  0  0  0  0  0  0  0
   41.2793   -4.2650   15.9440 H   0  0  0  0  0  0  0  0  0  0  0  0
   36.2431    0.4860   17.8347 C   0  0  0  0  0  0  0  0  0  0  0  0
   36.0243    1.5410   16.9309 C   0  0  0  0  0  0  0  0  0  0  0  0
   36.7936    2.7050   17.0032 C   0  0  0  0  0  0  0  0  0  0  0  0
   37.7860    2.8423   17.9791 C   0  0  0  0  0  0  0  0  0  0  0  0
   38.0023    1.7927   18.8912 C   0  0  0  0  0  0  0  0  0  0  0  0
   37.2321    0.6283   18.8211 C   0  0  0  0  0  0  0  0  0  0  0  0
   38.5269    4.0321   18.0110 O   0  0  0  0  0  0  0  0  0  0  0  0
   38.4583    5.0534   17.0188 C   0  0  0  0  0  0  0  0  0  0  0  0
   39.8233    5.7339   16.8637 C   0  0  0  0  0  0  0  0  0  0  0  0
   39.8471    7.0778   17.4880 N   0  0  0  0  0  0  0  0  0  0  0  0
   38.4756    7.5821   17.7557 C   0  0  0  0  0  0  0  0  0  0  0  0
   38.4519    8.7156   18.7839 C   0  0  0  0  0  0  0  0  0  0  0  0
   38.8506    8.1082   20.4642 S   0  0  0  0  0  0  0  0  0  0  0  0
   40.0062    6.7733   19.9795 C   0  0  0  0  0  0  0  0  0  0  0  0
   40.7392    7.1046   18.6758 C   0  0  0  0  0  0  0  0  0  0  0  0
 13 14  1  0  0  0
 14 15  2  0  0  0
 15 16  1  0  0  0
 16 17  2  0  0  0
 17  1  1  0  0  0
  1  2  1  0  0  0
  2  3  1  0  0  0
  3  4  2  0  0  0
  4  5  1  0  0  0
  5  6  1  0  0  0
  5  7  2  0  0  0
  7  8  1  0  0  0
  8  9  2  0  0  0
  9 10  1  0  0  0
 10 11  1  0  0  0
 11 21  1  0  0  0
 21 22  2  0  0  0
 22 23  1  0  0  0
 23 24  2  0  0  0
 24 27  1  0  0  0
 27 28  1  0  0  0
 28 29  1  0  0  0
 29 30  1  0  0  0
 30 31  1  0  0  0
 31 32  1  0  0  0
 32 33  1  0  0  0
 33 34  1  0  0  0
 34 35  1  0  0  0
 24 25  1  0  0  0
 25 26  2  0  0  0
 17 18  1  0  0  0
 18 19  2  0  0  0
 19 14  1  0  0  0
 11  1  1  0  0  0
 26 21  1  0  0  0
  9  3  1  0  0  0
 35 30  1  0  0  0
 13 20  1  0  0  0
  6 12  1  0  0  0
M  END
> <minimizedAffinity>
-8.00431

$$$$
CHEMBL362718


 35 39  0  0  0  0  0  0  0  0999 V2000
   37.5566   -1.6197   17.4736 C   0  0  0  0  0  0  0  0  0  0  0  0
   38.5167   -0.3547   16.5749 S   0  0  0  0  0  0  0  0  0  0  0  0
   37.1013    0.6650   16.1608 C   0  0  0  0  0  0  0  0  0  0  0  0
   37.0794    1.3214   14.9241 C   0  0  0  0  0  0  0  0  0  0  0  0
   36.0228    2.1829   14.6003 C   0  0  0  0  0  0  0  0  0  0  0  0
   35.9978    2.8487   13.3770 O   0  0  0  0  0  0  0  0  0  0  0  0
   34.9848    2.3809   15.5153 C   0  0  0  0  0  0  0  0  0  0  0  0
   34.9898    1.7059   16.7389 C   0  0  0  0  0  0  0  0  0  0  0  0
   36.0329    0.8304   17.0613 C   0  0  0  0  0  0  0  0  0  0  0  0
   35.9356    0.0850   18.2443 O   0  0  0  0  0  0  0  0  0  0  0  0
   36.8547   -0.9278   18.6756 C   0  0  0  0  0  0  0  0  0  0  0  0
   36.7337    2.7247   12.6916 H   0  0  0  0  0  0  0  0  0  0  0  0
   34.4278   -4.6417   13.7297 O   0  0  0  0  0  0  0  0  0  0  0  0
   35.1815   -3.9103   14.6448 C   0  0  0  0  0  0  0  0  0  0  0  0
   34.5604   -3.3625   15.7692 C   0  0  0  0  0  0  0  0  0  0  0  0
   35.3016   -2.6245   16.6967 C   0  0  0  0  0  0  0  0  0  0  0  0
   36.6861   -2.4218   16.5103 C   0  0  0  0  0  0  0  0  0  0  0  0
   37.2987   -2.9842   15.3751 C   0  0  0  0  0  0  0  0  0  0  0  0
   36.5537   -3.7199   14.4499 C   0  0  0  0  0  0  0  0  0  0  0  0
   34.8493   -5.0515   12.9043 H   0  0  0  0  0  0  0  0  0  0  0  0
   36.1525   -1.8595   19.6579 C   0  0  0  0  0  0  0  0  0  0  0  0
   36.8393   -2.7879   20.4695 C   0  0  0  0  0  0  0  0  0  0  0  0
   36.1424   -3.5985   21.3696 C   0  0  0  0  0  0  0  0  0  0  0  0
   34.7554   -3.4933   21.4982 C   0  0  0  0  0  0  0  0  0  0  0  0
   34.0649   -2.5523   20.7159 C   0  0  0  0  0  0  0  0  0  0  0  0
   34.7587   -1.7411   19.8142 C   0  0  0  0  0  0  0  0  0  0  0  0
   34.1064   -4.3358   22.4114 O   0  0  0  0  0  0  0  0  0  0  0  0
   32.8637   -4.0390   23.0439 C   0  0  0  0  0  0  0  0  0  0  0  0
   33.1072   -3.2796   24.3532 C   0  0  0  0  0  0  0  0  0  0  0  0
   31.9273   -2.4824   24.7686 N   0  0  0  0  0  0  0  0  0  0  0  0
   32.0053   -1.0649   24.3260 C   0  0  0  0  0  0  0  0  0  0  0  0
   32.3066   -0.0595   25.4512 C   0  0  0  0  0  0  0  0  0  0  0  0
   33.5990   -0.6907   26.5642 S   0  0  0  0  0  0  0  0  0  0  0  0
   32.6535   -2.1442   27.1619 C   0  0  0  0  0  0  0  0  0  0  0  0
   31.5566   -2.6271   26.1939 C   0  0  0  0  0  0  0  0  0  0  0  0
 13 14  1  0  0  0
 14 15  2  0  0  0
 15 16  1  0  0  0
 16 17  2  0  0  0
 17  1  1  0  0  0
  1  2  1  0  0  0
  2  3  1  0  0  0
  3  4  2  0  0  0
  4  5  1  0  0  0
  5  6  1  0  0  0
  5  7  2  0  0  0
  7  8  1  0  0  0
  8  9  2  0  0  0
  9 10  1  0  0  0
 10 11  1  0  0  0
 11 21  1  0  0  0
 21 22  2  0  0  0
 22 23  1  0  0  0
 23 24  2  0  0  0
 24 27  1  0  0  0
 27 28  1  0  0  0
 28 29  1  0  0  0
 29 30  1  0  0  0
 30 31  1  0  0  0
 31 32  1  0  0  0
 32 33  1  0  0  0
 33 34  1  0  0  0
 34 35  1  0  0  0
 24 25  1  0  0  0
 25 26  2  0  0  0
 17 18  1  0  0  0
 18 19  2  0  0  0
 19 14  1  0  0  0
 11  1  1  0  0  0
 26 21  1  0  0  0
  9  3  1  0  0  0
 35 30  1  0  0  0
 13 20  1  0  0  0
  6 12  1  0  0  0
M  END
> <minimizedAffinity>
-9.28015

$$$$
CHEMBL362718


 35 39  0  0  0  0  0  0  0  0999 V2000
   35.6102   -1.4249   16.7691 C   0  0  0  0  0  0  0  0  0  0  0  0
   36.0121   -1.5686   14.9951 S   0  0  0  0  0  0  0  0  0  0  0  0
   37.7167   -2.0622   15.2503 C   0  0  0  0  0  0  0  0  0  0  0  0
   38.6927   -1.6127   14.3524 C   0  0  0  0  0  0  0  0  0  0  0  0
   40.0212   -2.0390   14.4814 C   0  0  0  0  0  0  0  0  0  0  0  0
   40.9969   -1.6059   13.5865 O   0  0  0  0  0  0  0  0  0  0  0  0
   40.3716   -2.9118   15.5155 C   0  0  0  0  0  0  0  0  0  0  0  0
   39.4055   -3.3402   16.4297 C   0  0  0  0  0  0  0  0  0  0  0  0
   38.0804   -2.9042   16.3173 C   0  0  0  0  0  0  0  0  0  0  0  0
   37.1735   -3.2622   17.3242 O   0  0  0  0  0  0  0  0  0  0  0  0
   35.8128   -2.8203   17.4234 C   0  0  0  0  0  0  0  0  0  0  0  0
   40.7755   -0.9717   12.8279 H   0  0  0  0  0  0  0  0  0  0  0  0
   38.3077    3.1428   18.9596 O   0  0  0  0  0  0  0  0  0  0  0  0
   37.6525    2.0306   18.4360 C   0  0  0  0  0  0  0  0  0  0  0  0
   37.7501    0.8006   19.0902 C   0  0  0  0  0  0  0  0  0  0  0  0
   37.1002   -0.3258   18.5776 C   0  0  0  0  0  0  0  0  0  0  0  0
   36.3377   -0.2372   17.3929 C   0  0  0  0  0  0  0  0  0  0  0  0
   36.2447    1.0100   16.7478 C   0  0  0  0  0  0  0  0  0  0  0  0
   36.8971    2.1330   17.2629 C   0  0  0  0  0  0  0  0  0  0  0  0
   38.2562    4.0486   18.5082 H   0  0  0  0  0  0  0  0  0  0  0  0
   35.3465   -2.9471   18.8700 C   0  0  0  0  0  0  0  0  0  0  0  0
   34.0279   -2.6628   19.2856 C   0  0  0  0  0  0  0  0  0  0  0  0
   33.6532   -2.8217   20.6225 C   0  0  0  0  0  0  0  0  0  0  0  0
   34.5698   -3.2830   21.5703 C   0  0  0  0  0  0  0  0  0  0  0  0
   35.8772   -3.5964   21.1622 C   0  0  0  0  0  0  0  0  0  0  0  0
   36.2552   -3.4376   19.8264 C   0  0  0  0  0  0  0  0  0  0  0  0
   34.1423   -3.4171   22.8986 O   0  0  0  0  0  0  0  0  0  0  0  0
   32.7813   -3.5531   23.3006 C   0  0  0  0  0  0  0  0  0  0  0  0
   32.2655   -2.2270   23.8711 C   0  0  0  0  0  0  0  0  0  0  0  0
   31.6221   -2.3975   25.1967 N   0  0  0  0  0  0  0  0  0  0  0  0
   30.5903   -1.3630   25.4733 C   0  0  0  0  0  0  0  0  0  0  0  0
   31.0109   -0.2999   26.5032 C   0  0  0  0  0  0  0  0  0  0  0  0
   32.7247    0.2404   26.2234 S   0  0  0  0  0  0  0  0  0  0  0  0
   33.5017   -1.3893   26.5457 C   0  0  0  0  0  0  0  0  0  0  0  0
   32.5661   -2.5922   26.3195 C   0  0  0  0  0  0  0  0  0  0  0  0
 13 14  1  0  0  0
 14 15  2  0  0  0
 15 16  1  0  0  0
 16 17  2  0  0  0
 17  1  1  0  0  0
  1  2  1  0  0  0
  2  3  1  0  0  0
  3  4  2  0  0  0
  4  5  1  0  0  0
  5  6  1  0  0  0
  5  7  2  0  0  0
  7  8  1  0  0  0
  8  9  2  0  0  0
  9 10  1  0  0  0
 10 11  1  0  0  0
 11 21  1  0  0  0
 21 22  2  0  0  0
 22 23  1  0  0  0
 23 24  2  0  0  0
 24 27  1  0  0  0
 27 28  1  0  0  0
 28 29  1  0  0  0
 29 30  1  0  0  0
 30 31  1  0  0  0
 31 32  1  0  0  0
 32 33  1  0  0  0
 33 34  1  0  0  0
 34 35  1  0  0  0
 24 25  1  0  0  0
 25 26  2  0  0  0
 17 18  1  0  0  0
 18 19  2  0  0  0
 19 14  1  0  0  0
 11  1  1  0  0  0
 26 21  1  0  0  0
  9  3  1  0  0  0
 35 30  1  0  0  0
 13 20  1  0  0  0
  6 12  1  0  0  0
M  END
> <minimizedAffinity>
-8.55289

$$$$
CHEMBL362718


 35 39  0  0  0  0  0  0  0  0999 V2000
   37.1142   -3.8138   18.5316 C   0  0  0  0  0  0  0  0  0  0  0  0
   38.3904   -3.1757   17.3943 S   0  0  0  0  0  0  0  0  0  0  0  0
   37.3226   -1.9709   16.6053 C   0  0  0  0  0  0  0  0  0  0  0  0
   37.4823   -1.7189   15.2372 C   0  0  0  0  0  0  0  0  0  0  0  0
   36.7135   -0.7317   14.6063 C   0  0  0  0  0  0  0  0  0  0  0  0
   36.8731   -0.4663   13.2482 O   0  0  0  0  0  0  0  0  0  0  0  0
   35.7800   -0.0015   15.3473 C   0  0  0  0  0  0  0  0  0  0  0  0
   35.5987   -0.2697   16.7067 C   0  0  0  0  0  0  0  0  0  0  0  0
   36.3504   -1.2665   17.3391 C   0  0  0  0  0  0  0  0  0  0  0  0
   36.0508   -1.5828   18.6712 O   0  0  0  0  0  0  0  0  0  0  0  0
   36.6451   -2.6401   19.4364 C   0  0  0  0  0  0  0  0  0  0  0  0
   37.5395   -0.9795   12.6831 H   0  0  0  0  0  0  0  0  0  0  0  0
   33.2072   -6.7191   15.4929 O   0  0  0  0  0  0  0  0  0  0  0  0
   34.1516   -6.0166   16.2380 C   0  0  0  0  0  0  0  0  0  0  0  0
   33.8209   -5.5572   17.5146 C   0  0  0  0  0  0  0  0  0  0  0  0
   34.7562   -4.8493   18.2751 C   0  0  0  0  0  0  0  0  0  0  0  0
   36.0460   -4.5881   17.7645 C   0  0  0  0  0  0  0  0  0  0  0  0
   36.3661   -5.0617   16.4786 C   0  0  0  0  0  0  0  0  0  0  0  0
   35.4277   -5.7675   15.7213 C   0  0  0  0  0  0  0  0  0  0  0  0
   33.4168   -7.0652   14.5639 H   0  0  0  0  0  0  0  0  0  0  0  0
   35.7115   -3.0192   20.5813 C   0  0  0  0  0  0  0  0  0  0  0  0
   36.0897   -3.8770   21.6364 C   0  0  0  0  0  0  0  0  0  0  0  0
   35.1974   -4.1681   22.6717 C   0  0  0  0  0  0  0  0  0  0  0  0
   33.9208   -3.6014   22.6937 C   0  0  0  0  0  0  0  0  0  0  0  0
   33.5439   -2.7234   21.6636 C   0  0  0  0  0  0  0  0  0  0  0  0
   34.4335   -2.4312   20.6264 C   0  0  0  0  0  0  0  0  0  0  0  0
   33.0639   -3.9334   23.7523 O   0  0  0  0  0  0  0  0  0  0  0  0
   33.1667   -3.4051   25.0724 C   0  0  0  0  0  0  0  0  0  0  0  0
   32.7213   -1.9384   25.0890 C   0  0  0  0  0  0  0  0  0  0  0  0
   32.1944   -1.5256   26.4128 N   0  0  0  0  0  0  0  0  0  0  0  0
   31.3478   -0.3053   26.3405 C   0  0  0  0  0  0  0  0  0  0  0  0
   32.0106    0.9666   26.8978 C   0  0  0  0  0  0  0  0  0  0  0  0
   33.7466    1.0854   26.3689 S   0  0  0  0  0  0  0  0  0  0  0  0
   34.3191   -0.4322   27.2250 C   0  0  0  0  0  0  0  0  0  0  0  0
   33.2086   -1.4670   27.4888 C   0  0  0  0  0  0  0  0  0  0  0  0
 13 14  1  0  0  0
 14 15  2  0  0  0
 15 16  1  0  0  0
 16 17  2  0  0  0
 17  1  1  0  0  0
  1  2  1  0  0  0
  2  3  1  0  0  0
  3  4  2  0  0  0
  4  5  1  0  0  0
  5  6  1  0  0  0
  5  7  2  0  0  0
  7  8  1  0  0  0
  8  9  2  0  0  0
  9 10  1  0  0  0
 10 11  1  0  0  0
 11 21  1  0  0  0
 21 22  2  0  0  0
 22 23  1  0  0  0
 23 24  2  0  0  0
 24 27  1  0  0  0
 27 28  1  0  0  0
 28 29  1  0  0  0
 29 30  1  0  0  0
 30 31  1  0  0  0
 31 32  1  0  0  0
 32 33  1  0  0  0
 33 34  1  0  0  0
 34 35  1  0  0  0
 24 25  1  0  0  0
 25 26  2  0  0  0
 17 18  1  0  0  0
 18 19  2  0  0  0
 19 14  1  0  0  0
 11  1  1  0  0  0
 26 21  1  0  0  0
  9  3  1  0  0  0
 35 30  1  0  0  0
 13 20  1  0  0  0
  6 12  1  0  0  0
M  END
> <minimizedAffinity>
-8.36220

$$$$
CHEMBL362718


 35 39  0  0  0  0  0  0  0  0999 V2000
   33.7943   -4.6720   20.5879 C   0  0  0  0  0  0  0  0  0  0  0  0
   35.0471   -5.5527   19.5958 S   0  0  0  0  0  0  0  0  0  0  0  0
   35.9474   -4.0778   19.1177 C   0  0  0  0  0  0  0  0  0  0  0  0
   36.5110   -4.0147   17.8374 C   0  0  0  0  0  0  0  0  0  0  0  0
   37.2819   -2.9075   17.4588 C   0  0  0  0  0  0  0  0  0  0  0  0
   37.8556   -2.8408   16.1912 O   0  0  0  0  0  0  0  0  0  0  0  0
   37.4821   -1.8607   18.3630 C   0  0  0  0  0  0  0  0  0  0  0  0
   36.8982   -1.9080   19.6317 C   0  0  0  0  0  0  0  0  0  0  0  0
   36.1123   -3.0025   20.0100 C   0  0  0  0  0  0  0  0  0  0  0  0
   35.4492   -2.9519   21.2438 O   0  0  0  0  0  0  0  0  0  0  0  0
   34.5271   -3.9310   21.7412 C   0  0  0  0  0  0  0  0  0  0  0  0
   37.7273   -3.5820   15.5122 H   0  0  0  0  0  0  0  0  0  0  0  0
   30.1853   -1.6641   17.2915 O   0  0  0  0  0  0  0  0  0  0  0  0
   31.0677   -2.3885   18.0895 C   0  0  0  0  0  0  0  0  0  0  0  0
   32.4359   -2.3554   17.8116 C   0  0  0  0  0  0  0  0  0  0  0  0
   33.3351   -3.0776   18.6015 C   0  0  0  0  0  0  0  0  0  0  0  0
   32.8742   -3.8503   19.6893 C   0  0  0  0  0  0  0  0  0  0  0  0
   31.4934   -3.8698   19.9599 C   0  0  0  0  0  0  0  0  0  0  0  0
   30.5980   -3.1475   19.1669 C   0  0  0  0  0  0  0  0  0  0  0  0
   29.1873   -1.6679   17.4675 H   0  0  0  0  0  0  0  0  0  0  0  0
   33.6276   -3.2876   22.7915 C   0  0  0  0  0  0  0  0  0  0  0  0
   32.7137   -2.2526   22.4984 C   0  0  0  0  0  0  0  0  0  0  0  0
   31.8975   -1.7193   23.4994 C   0  0  0  0  0  0  0  0  0  0  0  0
   31.9553   -2.2122   24.8052 C   0  0  0  0  0  0  0  0  0  0  0  0
   32.8408   -3.2620   25.1018 C   0  0  0  0  0  0  0  0  0  0  0  0
   33.6591   -3.7966   24.1033 C   0  0  0  0  0  0  0  0  0  0  0  0
   31.1191   -1.6357   25.7713 O   0  0  0  0  0  0  0  0  0  0  0  0
   31.5783   -0.9683   26.9444 C   0  0  0  0  0  0  0  0  0  0  0  0
   30.8656    0.3805   27.0962 C   0  0  0  0  0  0  0  0  0  0  0  0
   29.9938    0.4240   28.2955 N   0  0  0  0  0  0  0  0  0  0  0  0
   29.6160   -0.9294   28.7821 C   0  0  0  0  0  0  0  0  0  0  0  0
   28.1569   -1.3268   28.4977 C   0  0  0  0  0  0  0  0  0  0  0  0
   27.6630   -0.8431   26.8156 S   0  0  0  0  0  0  0  0  0  0  0  0
   27.8585    0.9635   27.0632 C   0  0  0  0  0  0  0  0  0  0  0  0
   28.8412    1.3456   28.1865 C   0  0  0  0  0  0  0  0  0  0  0  0
 13 14  1  0  0  0
 14 15  2  0  0  0
 15 16  1  0  0  0
 16 17  2  0  0  0
 17  1  1  0  0  0
  1  2  1  0  0  0
  2  3  1  0  0  0
  3  4  2  0  0  0
  4  5  1  0  0  0
  5  6  1  0  0  0
  5  7  2  0  0  0
  7  8  1  0  0  0
  8  9  2  0  0  0
  9 10  1  0  0  0
 10 11  1  0  0  0
 11 21  1  0  0  0
 21 22  2  0  0  0
 22 23  1  0  0  0
 23 24  2  0  0  0
 24 27  1  0  0  0
 27 28  1  0  0  0
 28 29  1  0  0  0
 29 30  1  0  0  0
 30 31  1  0  0  0
 31 32  1  0  0  0
 32 33  1  0  0  0
 33 34  1  0  0  0
 34 35  1  0  0  0
 24 25  1  0  0  0
 25 26  2  0  0  0
 17 18  1  0  0  0
 18 19  2  0  0  0
 19 14  1  0  0  0
 11  1  1  0  0  0
 26 21  1  0  0  0
  9  3  1  0  0  0
 35 30  1  0  0  0
 13 20  1  0  0  0
  6 12  1  0  0  0
M  END
> <minimizedAffinity>
-8.31460

$$$$
CHEMBL362718


 35 39  0  0  0  0  0  0  0  0999 V2000
   37.0342   -4.5747   19.6423 C   0  0  0  0  0  0  0  0  0  0  0  0
   38.3139   -4.1613   18.4090 S   0  0  0  0  0  0  0  0  0  0  0  0
   37.1587   -3.6606   17.1325 C   0  0  0  0  0  0  0  0  0  0  0  0
   37.4631   -3.9452   15.7956 C   0  0  0  0  0  0  0  0  0  0  0  0
   36.6174   -3.5036   14.7693 C   0  0  0  0  0  0  0  0  0  0  0  0
   36.9176   -3.7723   13.4358 O   0  0  0  0  0  0  0  0  0  0  0  0
   35.4630   -2.7816   15.0850 C   0  0  0  0  0  0  0  0  0  0  0  0
   35.1421   -2.5200   16.4196 C   0  0  0  0  0  0  0  0  0  0  0  0
   35.9728   -2.9735   17.4505 C   0  0  0  0  0  0  0  0  0  0  0  0
   35.5504   -2.7934   18.7748 O   0  0  0  0  0  0  0  0  0  0  0  0
   36.2209   -3.2847   19.9433 C   0  0  0  0  0  0  0  0  0  0  0  0
   37.7454   -4.2950   13.1744 H   0  0  0  0  0  0  0  0  0  0  0  0
   34.2672   -9.3090   17.9486 O   0  0  0  0  0  0  0  0  0  0  0  0
   34.9330   -8.1589   18.3663 C   0  0  0  0  0  0  0  0  0  0  0  0
   34.2328   -7.1692   19.0594 C   0  0  0  0  0  0  0  0  0  0  0  0
   34.8852   -6.0083   19.4845 C   0  0  0  0  0  0  0  0  0  0  0  0
   36.2587   -5.8191   19.2191 C   0  0  0  0  0  0  0  0  0  0  0  0
   36.9518   -6.8274   18.5240 C   0  0  0  0  0  0  0  0  0  0  0  0
   36.2955   -7.9855   18.0997 C   0  0  0  0  0  0  0  0  0  0  0  0
   34.7474  -10.0448   17.4437 H   0  0  0  0  0  0  0  0  0  0  0  0
   35.2225   -3.3846   21.0920 C   0  0  0  0  0  0  0  0  0  0  0  0
   35.5269   -3.9875   22.3314 C   0  0  0  0  0  0  0  0  0  0  0  0
   34.5773   -4.0268   23.3559 C   0  0  0  0  0  0  0  0  0  0  0  0
   33.3153   -3.4540   23.1814 C   0  0  0  0  0  0  0  0  0  0  0  0
   33.0115   -2.8259   21.9618 C   0  0  0  0  0  0  0  0  0  0  0  0
   33.9584   -2.7858   20.9351 C   0  0  0  0  0  0  0  0  0  0  0  0
   32.3990   -3.5284   24.2396 O   0  0  0  0  0  0  0  0  0  0  0  0
   32.6400   -3.0336   25.5547 C   0  0  0  0  0  0  0  0  0  0  0  0
   32.7277   -1.5032   25.5340 C   0  0  0  0  0  0  0  0  0  0  0  0
   33.5931   -0.9748   26.6166 N   0  0  0  0  0  0  0  0  0  0  0  0
   33.0973   -1.3267   27.9736 C   0  0  0  0  0  0  0  0  0  0  0  0
   32.4686   -0.1551   28.7482 C   0  0  0  0  0  0  0  0  0  0  0  0
   31.3995    0.8445   27.6687 S   0  0  0  0  0  0  0  0  0  0  0  0
   32.7270    1.3941   26.5288 C   0  0  0  0  0  0  0  0  0  0  0  0
   33.9477    0.4553   26.4796 C   0  0  0  0  0  0  0  0  0  0  0  0
 13 14  1  0  0  0
 14 15  2  0  0  0
 15 16  1  0  0  0
 16 17  2  0  0  0
 17  1  1  0  0  0
  1  2  1  0  0  0
  2  3  1  0  0  0
  3  4  2  0  0  0
  4  5  1  0  0  0
  5  6  1  0  0  0
  5  7  2  0  0  0
  7  8  1  0  0  0
  8  9  2  0  0  0
  9 10  1  0  0  0
 10 11  1  0  0  0
 11 21  1  0  0  0
 21 22  2  0  0  0
 22 23  1  0  0  0
 23 24  2  0  0  0
 24 27  1  0  0  0
 27 28  1  0  0  0
 28 29  1  0  0  0
 29 30  1  0  0  0
 30 31  1  0  0  0
 31 32  1  0  0  0
 32 33  1  0  0  0
 33 34  1  0  0  0
 34 35  1  0  0  0
 24 25  1  0  0  0
 25 26  2  0  0  0
 17 18  1  0  0  0
 18 19  2  0  0  0
 19 14  1  0  0  0
 11  1  1  0  0  0
 26 21  1  0  0  0
  9  3  1  0  0  0
 35 30  1  0  0  0
 13 20  1  0  0  0
  6 12  1  0  0  0
M  END
> <minimizedAffinity>
-8.26343

$$$$
CHEMBL362718


 35 39  0  0  0  0  0  0  0  0999 V2000
   33.6782   -4.5417   20.5336 C   0  0  0  0  0  0  0  0  0  0  0  0
   34.9627   -5.3585   19.5275 S   0  0  0  0  0  0  0  0  0  0  0  0
   35.8053   -3.8431   19.0717 C   0  0  0  0  0  0  0  0  0  0  0  0
   36.3646   -3.7389   17.7921 C   0  0  0  0  0  0  0  0  0  0  0  0
   37.0921   -2.5973   17.4301 C   0  0  0  0  0  0  0  0  0  0  0  0
   37.6614   -2.4893   16.1634 O   0  0  0  0  0  0  0  0  0  0  0  0
   37.2531   -1.5575   18.3501 C   0  0  0  0  0  0  0  0  0  0  0  0
   36.6727   -1.6465   19.6182 C   0  0  0  0  0  0  0  0  0  0  0  0
   35.9299   -2.7760   19.9802 C   0  0  0  0  0  0  0  0  0  0  0  0
   35.2666   -2.7697   21.2149 O   0  0  0  0  0  0  0  0  0  0  0  0
   34.3833   -3.7909   21.6978 C   0  0  0  0  0  0  0  0  0  0  0  0
   37.5609   -3.2245   15.4732 H   0  0  0  0  0  0  0  0  0  0  0  0
   29.9526   -1.6179   17.2918 O   0  0  0  0  0  0  0  0  0  0  0  0
   30.8633   -2.3218   18.0763 C   0  0  0  0  0  0  0  0  0  0  0  0
   32.2233   -2.2788   17.7620 C   0  0  0  0  0  0  0  0  0  0  0  0
   33.1503   -2.9805   18.5380 C   0  0  0  0  0  0  0  0  0  0  0  0
   32.7263   -3.7424   19.6482 C   0  0  0  0  0  0  0  0  0  0  0  0
   31.3533   -3.7720   19.9553 C   0  0  0  0  0  0  0  0  0  0  0  0
   30.4299   -3.0702   19.1761 C   0  0  0  0  0  0  0  0  0  0  0  0
   28.9597   -1.6294   17.4940 H   0  0  0  0  0  0  0  0  0  0  0  0
   33.4609   -3.1986   22.7583 C   0  0  0  0  0  0  0  0  0  0  0  0
   32.7373   -2.0010   22.5728 C   0  0  0  0  0  0  0  0  0  0  0  0
   31.8878   -1.5206   23.5730 C   0  0  0  0  0  0  0  0  0  0  0  0
   31.7226   -2.2251   24.7679 C   0  0  0  0  0  0  0  0  0  0  0  0
   32.4159   -3.4333   24.9515 C   0  0  0  0  0  0  0  0  0  0  0  0
   33.2670   -3.9157   23.9538 C   0  0  0  0  0  0  0  0  0  0  0  0
   30.8634   -1.6938   25.7398 O   0  0  0  0  0  0  0  0  0  0  0  0
   31.0572   -1.8194   27.1466 C   0  0  0  0  0  0  0  0  0  0  0  0
   32.5415   -1.6512   27.4910 C   0  0  0  0  0  0  0  0  0  0  0  0
   32.7558   -0.6917   28.6017 N   0  0  0  0  0  0  0  0  0  0  0  0
   31.5869    0.1997   28.8261 C   0  0  0  0  0  0  0  0  0  0  0  0
   31.7899    1.6507   28.3559 C   0  0  0  0  0  0  0  0  0  0  0  0
   32.6213    1.7046   26.7393 S   0  0  0  0  0  0  0  0  0  0  0  0
   34.1861    0.9258   27.2949 C   0  0  0  0  0  0  0  0  0  0  0  0
   34.0418    0.0383   28.5460 C   0  0  0  0  0  0  0  0  0  0  0  0
 13 14  1  0  0  0
 14 15  2  0  0  0
 15 16  1  0  0  0
 16 17  2  0  0  0
 17  1  1  0  0  0
  1  2  1  0  0  0
  2  3  1  0  0  0
  3  4  2  0  0  0
  4  5  1  0  0  0
  5  6  1  0  0  0
  5  7  2  0  0  0
  7  8  1  0  0  0
  8  9  2  0  0  0
  9 10  1  0  0  0
 10 11  1  0  0  0
 11 21  1  0  0  0
 21 22  2  0  0  0
 22 23  1  0  0  0
 23 24  2  0  0  0
 24 27  1  0  0  0
 27 28  1  0  0  0
 28 29  1  0  0  0
 29 30  1  0  0  0
 30 31  1  0  0  0
 31 32  1  0  0  0
 32 33  1  0  0  0
 33 34  1  0  0  0
 34 35  1  0  0  0
 24 25  1  0  0  0
 25 26  2  0  0  0
 17 18  1  0  0  0
 18 19  2  0  0  0
 19 14  1  0  0  0
 11  1  1  0  0  0
 26 21  1  0  0  0
  9  3  1  0  0  0
 35 30  1  0  0  0
 13 20  1  0  0  0
  6 12  1  0  0  0
M  END
> <minimizedAffinity>
-8.11524

$$$$
CHEMBL362718


 35 39  0  0  0  0  0  0  0  0999 V2000
   35.6407   -1.2612   16.9276 C   0  0  0  0  0  0  0  0  0  0  0  0
   34.4480   -2.6122   17.2136 S   0  0  0  0  0  0  0  0  0  0  0  0
   35.1969   -3.1740   18.7426 C   0  0  0  0  0  0  0  0  0  0  0  0
   35.2077   -4.5453   19.0264 C   0  0  0  0  0  0  0  0  0  0  0  0
   35.7196   -5.0103   20.2451 C   0  0  0  0  0  0  0  0  0  0  0  0
   35.7246   -6.3715   20.5409 O   0  0  0  0  0  0  0  0  0  0  0  0
   36.2263   -4.0996   21.1766 C   0  0  0  0  0  0  0  0  0  0  0  0
   36.2422   -2.7331   20.8848 C   0  0  0  0  0  0  0  0  0  0  0  0
   35.7490   -2.2634   19.6622 C   0  0  0  0  0  0  0  0  0  0  0  0
   35.8953   -0.9019   19.3635 O   0  0  0  0  0  0  0  0  0  0  0  0
   35.5446   -0.2728   18.1235 C   0  0  0  0  0  0  0  0  0  0  0  0
   35.3667   -7.0570   19.8861 H   0  0  0  0  0  0  0  0  0  0  0  0
   40.7410   -3.5396   15.6106 O   0  0  0  0  0  0  0  0  0  0  0  0
   39.5061   -2.9786   15.9280 C   0  0  0  0  0  0  0  0  0  0  0  0
   39.4361   -1.6396   16.3183 C   0  0  0  0  0  0  0  0  0  0  0  0
   38.2052   -1.0613   16.6417 C   0  0  0  0  0  0  0  0  0  0  0  0
   37.0171   -1.8210   16.5795 C   0  0  0  0  0  0  0  0  0  0  0  0
   37.1031   -3.1675   16.1798 C   0  0  0  0  0  0  0  0  0  0  0  0
   38.3357   -3.7419   15.8588 C   0  0  0  0  0  0  0  0  0  0  0  0
   40.8245   -4.5081   15.3242 H   0  0  0  0  0  0  0  0  0  0  0  0
   36.3343    1.0237   17.9757 C   0  0  0  0  0  0  0  0  0  0  0  0
   37.3889    1.3900   18.8394 C   0  0  0  0  0  0  0  0  0  0  0  0
   38.0925    2.5805   18.6383 C   0  0  0  0  0  0  0  0  0  0  0  0
   37.7797    3.4221   17.5682 C   0  0  0  0  0  0  0  0  0  0  0  0
   36.7509    3.0531   16.6853 C   0  0  0  0  0  0  0  0  0  0  0  0
   36.0447    1.8639   16.8844 C   0  0  0  0  0  0  0  0  0  0  0  0
   38.5131    4.6073   17.4178 O   0  0  0  0  0  0  0  0  0  0  0  0
   39.1128    5.3293   18.4909 C   0  0  0  0  0  0  0  0  0  0  0  0
   39.8763    6.5425   17.9476 C   0  0  0  0  0  0  0  0  0  0  0  0
   40.2389    7.5039   19.0175 N   0  0  0  0  0  0  0  0  0  0  0  0
   39.4278    7.3255   20.2510 C   0  0  0  0  0  0  0  0  0  0  0  0
   38.3684    8.4171   20.4830 C   0  0  0  0  0  0  0  0  0  0  0  0
   37.5093    8.8347   18.9354 S   0  0  0  0  0  0  0  0  0  0  0  0
   38.9862    9.4717   18.0543 C   0  0  0  0  0  0  0  0  0  0  0  0
   40.3241    8.9138   18.5763 C   0  0  0  0  0  0  0  0  0  0  0  0
 13 14  1  0  0  0
 14 15  2  0  0  0
 15 16  1  0  0  0
 16 17  2  0  0  0
 17  1  1  0  0  0
  1  2  1  0  0  0
  2  3  1  0  0  0
  3  4  2  0  0  0
  4  5  1  0  0  0
  5  6  1  0  0  0
  5  7  2  0  0  0
  7  8  1  0  0  0
  8  9  2  0  0  0
  9 10  1  0  0  0
 10 11  1  0  0  0
 11 21  1  0  0  0
 21 22  2  0  0  0
 22 23  1  0  0  0
 23 24  2  0  0  0
 24 27  1  0  0  0
 27 28  1  0  0  0
 28 29  1  0  0  0
 29 30  1  0  0  0
 30 31  1  0  0  0
 31 32  1  0  0  0
 32 33  1  0  0  0
 33 34  1  0  0  0
 34 35  1  0  0  0
 24 25  1  0  0  0
 25 26  2  0  0  0
 17 18  1  0  0  0
 18 19  2  0  0  0
 19 14  1  0  0  0
 11  1  1  0  0  0
 26 21  1  0  0  0
  9  3  1  0  0  0
 35 30  1  0  0  0
 13 20  1  0  0  0
  6 12  1  0  0  0
M  END
> <minimizedAffinity>
-8.07774

$$$$
CHEMBL362718


 35 39  0  0  0  0  0  0  0  0999 V2000
   37.6492    0.3454   18.6945 C   0  0  0  0  0  0  0  0  0  0  0  0
   37.9894    2.1333   18.5636 S   0  0  0  0  0  0  0  0  0  0  0  0
   36.8767    2.4138   17.1861 C   0  0  0  0  0  0  0  0  0  0  0  0
   37.2352    3.3481   16.2066 C   0  0  0  0  0  0  0  0  0  0  0  0
   36.3555    3.6436   15.1567 C   0  0  0  0  0  0  0  0  0  0  0  0
   36.6987    4.5796   14.1838 O   0  0  0  0  0  0  0  0  0  0  0  0
   35.1184    2.9967   15.0863 C   0  0  0  0  0  0  0  0  0  0  0  0
   34.7694    2.0436   16.0467 C   0  0  0  0  0  0  0  0  0  0  0  0
   35.6506    1.7307   17.0879 C   0  0  0  0  0  0  0  0  0  0  0  0
   35.3107    0.6847   17.9569 O   0  0  0  0  0  0  0  0  0  0  0  0
   36.1373    0.1645   19.0069 C   0  0  0  0  0  0  0  0  0  0  0  0
   37.5886    5.0638   14.2055 H   0  0  0  0  0  0  0  0  0  0  0  0
   39.9251   -2.3318   14.1567 O   0  0  0  0  0  0  0  0  0  0  0  0
   39.3683   -1.6894   15.2603 C   0  0  0  0  0  0  0  0  0  0  0  0
   38.1414   -2.1245   15.7659 C   0  0  0  0  0  0  0  0  0  0  0  0
   37.5679   -1.4901   16.8716 C   0  0  0  0  0  0  0  0  0  0  0  0
   38.2188   -0.4019   17.4920 C   0  0  0  0  0  0  0  0  0  0  0  0
   39.4568    0.0218   16.9742 C   0  0  0  0  0  0  0  0  0  0  0  0
   40.0257   -0.6142   15.8678 C   0  0  0  0  0  0  0  0  0  0  0  0
   40.8135   -2.0397   13.7667 H   0  0  0  0  0  0  0  0  0  0  0  0
   35.6952   -1.2572   19.3380 C   0  0  0  0  0  0  0  0  0  0  0  0
   36.4001   -2.1001   20.2240 C   0  0  0  0  0  0  0  0  0  0  0  0
   35.9316   -3.3858   20.5073 C   0  0  0  0  0  0  0  0  0  0  0  0
   34.7471   -3.8558   19.9351 C   0  0  0  0  0  0  0  0  0  0  0  0
   34.0221   -3.0147   19.0742 C   0  0  0  0  0  0  0  0  0  0  0  0
   34.4886   -1.7289   18.7880 C   0  0  0  0  0  0  0  0  0  0  0  0
   34.3272   -5.1559   20.2485 O   0  0  0  0  0  0  0  0  0  0  0  0
   34.9349   -6.3449   19.7491 C   0  0  0  0  0  0  0  0  0  0  0  0
   34.2235   -6.8031   18.4708 C   0  0  0  0  0  0  0  0  0  0  0  0
   35.1665   -7.0032   17.3434 N   0  0  0  0  0  0  0  0  0  0  0  0
   36.0573   -5.8331   17.1233 C   0  0  0  0  0  0  0  0  0  0  0  0
   35.7160   -4.9949   15.8788 C   0  0  0  0  0  0  0  0  0  0  0  0
   33.9199   -4.7563   15.7229 S   0  0  0  0  0  0  0  0  0  0  0  0
   33.5023   -6.5289   15.5062 C   0  0  0  0  0  0  0  0  0  0  0  0
   34.5412   -7.5007   16.0978 C   0  0  0  0  0  0  0  0  0  0  0  0
 13 14  1  0  0  0
 14 15  2  0  0  0
 15 16  1  0  0  0
 16 17  2  0  0  0
 17  1  1  0  0  0
  1  2  1  0  0  0
  2  3  1  0  0  0
  3  4  2  0  0  0
  4  5  1  0  0  0
  5  6  1  0  0  0
  5  7  2  0  0  0
  7  8  1  0  0  0
  8  9  2  0  0  0
  9 10  1  0  0  0
 10 11  1  0  0  0
 11 21  1  0  0  0
 21 22  2  0  0  0
 22 23  1  0  0  0
 23 24  2  0  0  0
 24 27  1  0  0  0
 27 28  1  0  0  0
 28 29  1  0  0  0
 29 30  1  0  0  0
 30 31  1  0  0  0
 31 32  1  0  0  0
 32 33  1  0  0  0
 33 34  1  0  0  0
 34 35  1  0  0  0
 24 25  1  0  0  0
 25 26  2  0  0  0
 17 18  1  0  0  0
 18 19  2  0  0  0
 19 14  1  0  0  0
 11  1  1  0  0  0
 26 21  1  0  0  0
  9  3  1  0  0  0
 35 30  1  0  0  0
 13 20  1  0  0  0
  6 12  1  0  0  0
M  END
> <minimizedAffinity>
-8.02910

$$$$
CHEMBL362718


 35 39  0  0  0  0  0  0  0  0999 V2000
   38.0655   -0.0577   17.5607 C   0  0  0  0  0  0  0  0  0  0  0  0
   38.6885    1.5335   16.9209 S   0  0  0  0  0  0  0  0  0  0  0  0
   37.1665    1.9851   16.0879 C   0  0  0  0  0  0  0  0  0  0  0  0
   37.2402    2.6740   14.8710 C   0  0  0  0  0  0  0  0  0  0  0  0
   36.0704    3.1051   14.2314 C   0  0  0  0  0  0  0  0  0  0  0  0
   36.1343    3.8006   13.0261 O   0  0  0  0  0  0  0  0  0  0  0  0
   34.8261    2.8395   14.8099 C   0  0  0  0  0  0  0  0  0  0  0  0
   34.7479    2.1281   16.0102 C   0  0  0  0  0  0  0  0  0  0  0  0
   35.9113    1.6791   16.6453 C   0  0  0  0  0  0  0  0  0  0  0  0
   35.7800    0.8676   17.7805 O   0  0  0  0  0  0  0  0  0  0  0  0
   36.8552    0.2378   18.4903 C   0  0  0  0  0  0  0  0  0  0  0  0
   37.0205    4.0068   12.5801 H   0  0  0  0  0  0  0  0  0  0  0  0
   37.4740   -3.7975   13.2477 O   0  0  0  0  0  0  0  0  0  0  0  0
   37.6096   -2.8921   14.2975 C   0  0  0  0  0  0  0  0  0  0  0  0
   36.4690   -2.3398   14.8844 C   0  0  0  0  0  0  0  0  0  0  0  0
   36.5871   -1.4286   15.9379 C   0  0  0  0  0  0  0  0  0  0  0  0
   37.8587   -1.0532   16.4227 C   0  0  0  0  0  0  0  0  0  0  0  0
   38.9984   -1.6220   15.8245 C   0  0  0  0  0  0  0  0  0  0  0  0
   38.8758   -2.5313   14.7708 C   0  0  0  0  0  0  0  0  0  0  0  0
   38.2821   -4.2153   12.8013 H   0  0  0  0  0  0  0  0  0  0  0  0
   36.3128   -0.9554   19.2702 C   0  0  0  0  0  0  0  0  0  0  0  0
   34.9350   -1.2330   19.4005 C   0  0  0  0  0  0  0  0  0  0  0  0
   34.4992   -2.3567   20.1077 C   0  0  0  0  0  0  0  0  0  0  0  0
   35.4176   -3.2379   20.6832 C   0  0  0  0  0  0  0  0  0  0  0  0
   36.7921   -2.9870   20.5352 C   0  0  0  0  0  0  0  0  0  0  0  0
   37.2310   -1.8636   19.8296 C   0  0  0  0  0  0  0  0  0  0  0  0
   34.9251   -4.3454   21.3875 O   0  0  0  0  0  0  0  0  0  0  0  0
   33.9842   -5.2817   20.8675 C   0  0  0  0  0  0  0  0  0  0  0  0
   34.6589   -6.1849   19.8287 C   0  0  0  0  0  0  0  0  0  0  0  0
   33.7887   -6.4391   18.6547 N   0  0  0  0  0  0  0  0  0  0  0  0
   34.2527   -7.5876   17.8319 C   0  0  0  0  0  0  0  0  0  0  0  0
   34.8971   -7.1945   16.4910 C   0  0  0  0  0  0  0  0  0  0  0  0
   36.0087   -5.7692   16.6921 S   0  0  0  0  0  0  0  0  0  0  0  0
   34.7147   -4.5812   17.2193 C   0  0  0  0  0  0  0  0  0  0  0  0
   33.4721   -5.2379   17.8505 C   0  0  0  0  0  0  0  0  0  0  0  0
 13 14  1  0  0  0
 14 15  2  0  0  0
 15 16  1  0  0  0
 16 17  2  0  0  0
 17  1  1  0  0  0
  1  2  1  0  0  0
  2  3  1  0  0  0
  3  4  2  0  0  0
  4  5  1  0  0  0
  5  6  1  0  0  0
  5  7  2  0  0  0
  7  8  1  0  0  0
  8  9  2  0  0  0
  9 10  1  0  0  0
 10 11  1  0  0  0
 11 21  1  0  0  0
 21 22  2  0  0  0
 22 23  1  0  0  0
 23 24  2  0  0  0
 24 27  1  0  0  0
 27 28  1  0  0  0
 28 29  1  0  0  0
 29 30  1  0  0  0
 30 31  1  0  0  0
 31 32  1  0  0  0
 32 33  1  0  0  0
 33 34  1  0  0  0
 34 35  1  0  0  0
 24 25  1  0  0  0
 25 26  2  0  0  0
 17 18  1  0  0  0
 18 19  2  0  0  0
 19 14  1  0  0  0
 11  1  1  0  0  0
 26 21  1  0  0  0
  9  3  1  0  0  0
 35 30  1  0  0  0
 13 20  1  0  0  0
  6 12  1  0  0  0
M  END
> <minimizedAffinity>
-8.01170

$$$$
CHEMBL184679


 35 39  0  0  0  0  0  0  0  0999 V2000
   37.8067   -1.2209   17.4688 C   0  0  0  0  0  0  0  0  0  0  0  0
   38.7046    0.0513   16.5211 S   0  0  0  0  0  0  0  0  0  0  0  0
   37.2421    0.9998   16.0994 C   0  0  0  0  0  0  0  0  0  0  0  0
   37.1540    1.5847   14.8310 C   0  0  0  0  0  0  0  0  0  0  0  0
   36.0589    2.3945   14.5022 C   0  0  0  0  0  0  0  0  0  0  0  0
   35.9739    2.9978   13.2483 O   0  0  0  0  0  0  0  0  0  0  0  0
   35.0517    2.6169   15.4452 C   0  0  0  0  0  0  0  0  0  0  0  0
   35.1233    2.0127   16.7028 C   0  0  0  0  0  0  0  0  0  0  0  0
   36.2015    1.1819   17.0292 C   0  0  0  0  0  0  0  0  0  0  0  0
   36.1646    0.4898   18.2476 O   0  0  0  0  0  0  0  0  0  0  0  0
   37.0770   -0.5382   18.6594 C   0  0  0  0  0  0  0  0  0  0  0  0
   36.6885    2.8559   12.5413 H   0  0  0  0  0  0  0  0  0  0  0  0
   34.8879   -4.4910   13.7648 O   0  0  0  0  0  0  0  0  0  0  0  0
   35.5918   -3.7116   14.6811 C   0  0  0  0  0  0  0  0  0  0  0  0
   36.9860   -3.6118   14.6128 C   0  0  0  0  0  0  0  0  0  0  0  0
   37.6787   -2.8202   15.5334 C   0  0  0  0  0  0  0  0  0  0  0  0
   36.9919   -2.1153   16.5409 C   0  0  0  0  0  0  0  0  0  0  0  0
   35.5856   -2.2190   16.5947 C   0  0  0  0  0  0  0  0  0  0  0  0
   34.8968   -3.0182   15.6761 C   0  0  0  0  0  0  0  0  0  0  0  0
   35.3556   -4.9761   13.0074 H   0  0  0  0  0  0  0  0  0  0  0  0
   36.3926   -1.5419   19.5737 C   0  0  0  0  0  0  0  0  0  0  0  0
   37.1230   -2.5169   20.2786 C   0  0  0  0  0  0  0  0  0  0  0  0
   36.4704   -3.4514   21.0876 C   0  0  0  0  0  0  0  0  0  0  0  0
   35.0703   -3.4270   21.2151 C   0  0  0  0  0  0  0  0  0  0  0  0
   34.3427   -2.4503   20.5268 C   0  0  0  0  0  0  0  0  0  0  0  0
   34.9921   -1.5263   19.7032 C   0  0  0  0  0  0  0  0  0  0  0  0
   34.3643   -4.3457   22.0099 O   0  0  0  0  0  0  0  0  0  0  0  0
   33.1292   -4.0796   22.6767 C   0  0  0  0  0  0  0  0  0  0  0  0
   33.3895   -3.4420   24.0465 C   0  0  0  0  0  0  0  0  0  0  0  0
   32.1206   -3.0528   24.6936 N   0  0  0  0  0  0  0  0  0  0  0  0
   31.5887   -1.7673   24.1971 C   0  0  0  0  0  0  0  0  0  0  0  0
   31.0512   -0.9866   25.3996 C   0  0  0  0  0  0  0  0  0  0  0  0
   31.2185   -1.9141   26.5890 C   0  0  0  0  0  0  0  0  0  0  0  0
   30.0322   -2.5919   26.8288 F   0  0  0  0  0  0  0  0  0  0  0  0
   32.2892   -2.8900   26.1431 C   0  0  0  0  0  0  0  0  0  0  0  0
 13 14  1  0  0  0
 14 15  2  0  0  0
 15 16  1  0  0  0
 16 17  2  0  0  0
 17  1  1  0  0  0
  1  2  1  0  0  0
  2  3  1  0  0  0
  3  4  2  0  0  0
  4  5  1  0  0  0
  5  6  1  0  0  0
  5  7  2  0  0  0
  7  8  1  0  0  0
  8  9  2  0  0  0
  9 10  1  0  0  0
 10 11  1  0  0  0
 11 21  1  0  0  0
 21 22  2  0  0  0
 22 23  1  0  0  0
 23 24  2  0  0  0
 24 27  1  0  0  0
 27 28  1  0  0  0
 28 29  1  0  0  0
 29 30  1  0  0  0
 30 31  1  0  0  0
 31 32  1  0  0  0
 32 33  1  0  0  0
 33 34  1  0  0  0
 33 35  1  0  0  0
 24 25  1  0  0  0
 25 26  2  0  0  0
 17 18  1  0  0  0
 18 19  2  0  0  0
 19 14  1  0  0  0
 11  1  1  0  0  0
 26 21  1  0  0  0
  9  3  1  0  0  0
 35 30  1  0  0  0
 13 20  1  0  0  0
  6 12  1  0  0  0
M  END
> <minimizedAffinity>
-9.50178

$$$$
CHEMBL184679


 35 39  0  0  0  0  0  0  0  0999 V2000
   37.2998   -2.2769   17.8375 C   0  0  0  0  0  0  0  0  0  0  0  0
   38.3629   -1.2725   16.7494 S   0  0  0  0  0  0  0  0  0  0  0  0
   37.0607   -0.1459   16.2477 C   0  0  0  0  0  0  0  0  0  0  0  0
   37.0309    0.3124   14.9256 C   0  0  0  0  0  0  0  0  0  0  0  0
   36.0716    1.2523   14.5265 C   0  0  0  0  0  0  0  0  0  0  0  0
   36.0482    1.7297   13.2169 O   0  0  0  0  0  0  0  0  0  0  0  0
   35.1417    1.7319   15.4530 C   0  0  0  0  0  0  0  0  0  0  0  0
   35.1518    1.2562   16.7665 C   0  0  0  0  0  0  0  0  0  0  0  0
   36.0910    0.2981   17.1657 C   0  0  0  0  0  0  0  0  0  0  0  0
   35.9788   -0.2500   18.4510 O   0  0  0  0  0  0  0  0  0  0  0  0
   36.7251   -1.3657   18.9580 C   0  0  0  0  0  0  0  0  0  0  0  0
   36.7094    1.4012   12.5201 H   0  0  0  0  0  0  0  0  0  0  0  0
   33.8409   -5.5209   14.6055 O   0  0  0  0  0  0  0  0  0  0  0  0
   34.6660   -4.7345   15.4077 C   0  0  0  0  0  0  0  0  0  0  0  0
   35.8913   -5.2263   15.8717 C   0  0  0  0  0  0  0  0  0  0  0  0
   36.7126   -4.4239   16.6691 C   0  0  0  0  0  0  0  0  0  0  0  0
   36.3244   -3.1163   17.0196 C   0  0  0  0  0  0  0  0  0  0  0  0
   35.0897   -2.6300   16.5396 C   0  0  0  0  0  0  0  0  0  0  0  0
   34.2672   -3.4389   15.7481 C   0  0  0  0  0  0  0  0  0  0  0  0
   34.1158   -6.4501   14.3075 H   0  0  0  0  0  0  0  0  0  0  0  0
   35.9149   -2.1449   19.9818 C   0  0  0  0  0  0  0  0  0  0  0  0
   34.5159   -2.0177   20.0686 C   0  0  0  0  0  0  0  0  0  0  0  0
   33.7943   -2.7178   21.0396 C   0  0  0  0  0  0  0  0  0  0  0  0
   34.4569   -3.5679   21.9428 C   0  0  0  0  0  0  0  0  0  0  0  0
   35.8458   -3.7072   21.8501 C   0  0  0  0  0  0  0  0  0  0  0  0
   36.5709   -2.9939   20.8913 C   0  0  0  0  0  0  0  0  0  0  0  0
   33.7811   -4.2899   22.9409 O   0  0  0  0  0  0  0  0  0  0  0  0
   32.7417   -3.7709   23.7723 C   0  0  0  0  0  0  0  0  0  0  0  0
   33.3336   -3.1680   25.0517 C   0  0  0  0  0  0  0  0  0  0  0  0
   32.4835   -2.0712   25.5567 N   0  0  0  0  0  0  0  0  0  0  0  0
   32.8647   -1.6204   26.9106 C   0  0  0  0  0  0  0  0  0  0  0  0
   31.5776   -1.3742   27.7025 C   0  0  0  0  0  0  0  0  0  0  0  0
   30.4474   -1.6187   26.7197 C   0  0  0  0  0  0  0  0  0  0  0  0
   30.0315   -0.4147   26.1704 F   0  0  0  0  0  0  0  0  0  0  0  0
   31.0775   -2.4848   25.6470 C   0  0  0  0  0  0  0  0  0  0  0  0
 13 14  1  0  0  0
 14 15  2  0  0  0
 15 16  1  0  0  0
 16 17  2  0  0  0
 17  1  1  0  0  0
  1  2  1  0  0  0
  2  3  1  0  0  0
  3  4  2  0  0  0
  4  5  1  0  0  0
  5  6  1  0  0  0
  5  7  2  0  0  0
  7  8  1  0  0  0
  8  9  2  0  0  0
  9 10  1  0  0  0
 10 11  1  0  0  0
 11 21  1  0  0  0
 21 22  2  0  0  0
 22 23  1  0  0  0
 23 24  2  0  0  0
 24 27  1  0  0  0
 27 28  1  0  0  0
 28 29  1  0  0  0
 29 30  1  0  0  0
 30 31  1  0  0  0
 31 32  1  0  0  0
 32 33  1  0  0  0
 33 34  1  0  0  0
 33 35  1  0  0  0
 24 25  1  0  0  0
 25 26  2  0  0  0
 17 18  1  0  0  0
 18 19  2  0  0  0
 19 14  1  0  0  0
 11  1  1  0  0  0
 26 21  1  0  0  0
  9  3  1  0  0  0
 35 30  1  0  0  0
 13 20  1  0  0  0
  6 12  1  0  0  0
M  END
> <minimizedAffinity>
-8.86946

$$$$
CHEMBL184679


 35 39  0  0  0  0  0  0  0  0999 V2000
   33.0911   -2.8546   18.3290 C   0  0  0  0  0  0  0  0  0  0  0  0
   32.8296   -3.3380   16.5910 S   0  0  0  0  0  0  0  0  0  0  0  0
   34.4486   -4.0820   16.3856 C   0  0  0  0  0  0  0  0  0  0  0  0
   35.1187   -3.9253   15.1670 C   0  0  0  0  0  0  0  0  0  0  0  0
   36.3492   -4.5598   14.9521 C   0  0  0  0  0  0  0  0  0  0  0  0
   37.0131   -4.4260   13.7336 O   0  0  0  0  0  0  0  0  0  0  0  0
   36.9081   -5.3508   15.9597 C   0  0  0  0  0  0  0  0  0  0  0  0
   36.2547   -5.4874   17.1869 C   0  0  0  0  0  0  0  0  0  0  0  0
   35.0377   -4.8356   17.4179 C   0  0  0  0  0  0  0  0  0  0  0  0
   34.4867   -4.8893   18.7057 O   0  0  0  0  0  0  0  0  0  0  0  0
   33.3592   -4.1336   19.1708 C   0  0  0  0  0  0  0  0  0  0  0  0
   36.6341   -3.8585   12.9820 H   0  0  0  0  0  0  0  0  0  0  0  0
   36.8916    1.4439   18.4369 O   0  0  0  0  0  0  0  0  0  0  0  0
   35.9579    0.4092   18.4286 C   0  0  0  0  0  0  0  0  0  0  0  0
   35.0225    0.2984   17.3936 C   0  0  0  0  0  0  0  0  0  0  0  0
   34.0967   -0.7490   17.3938 C   0  0  0  0  0  0  0  0  0  0  0  0
   34.0865   -1.7039   18.4289 C   0  0  0  0  0  0  0  0  0  0  0  0
   35.0393   -1.5848   19.4630 C   0  0  0  0  0  0  0  0  0  0  0  0
   35.9593   -0.5308   19.4631 C   0  0  0  0  0  0  0  0  0  0  0  0
   36.9444    2.1203   17.6835 H   0  0  0  0  0  0  0  0  0  0  0  0
   33.4764   -3.8365   20.6573 C   0  0  0  0  0  0  0  0  0  0  0  0
   34.5878   -4.2598   21.4100 C   0  0  0  0  0  0  0  0  0  0  0  0
   34.6593   -4.0054   22.7825 C   0  0  0  0  0  0  0  0  0  0  0  0
   33.6216   -3.3141   23.4327 C   0  0  0  0  0  0  0  0  0  0  0  0
   32.5221   -2.8798   22.6847 C   0  0  0  0  0  0  0  0  0  0  0  0
   32.4406   -3.1493   21.3155 C   0  0  0  0  0  0  0  0  0  0  0  0
   33.6405   -3.0371   24.8100 O   0  0  0  0  0  0  0  0  0  0  0  0
   32.5481   -3.2447   25.7071 C   0  0  0  0  0  0  0  0  0  0  0  0
   32.5366   -2.1617   26.7924 C   0  0  0  0  0  0  0  0  0  0  0  0
   33.3110   -0.9802   26.3626 N   0  0  0  0  0  0  0  0  0  0  0  0
   34.4055   -0.6363   27.2930 C   0  0  0  0  0  0  0  0  0  0  0  0
   34.4375    0.8878   27.4362 C   0  0  0  0  0  0  0  0  0  0  0  0
   33.3749    1.4040   26.4837 C   0  0  0  0  0  0  0  0  0  0  0  0
   33.9579    1.7653   25.2779 F   0  0  0  0  0  0  0  0  0  0  0  0
   32.4598    0.2133   26.2778 C   0  0  0  0  0  0  0  0  0  0  0  0
 13 14  1  0  0  0
 14 15  2  0  0  0
 15 16  1  0  0  0
 16 17  2  0  0  0
 17  1  1  0  0  0
  1  2  1  0  0  0
  2  3  1  0  0  0
  3  4  2  0  0  0
  4  5  1  0  0  0
  5  6  1  0  0  0
  5  7  2  0  0  0
  7  8  1  0  0  0
  8  9  2  0  0  0
  9 10  1  0  0  0
 10 11  1  0  0  0
 11 21  1  0  0  0
 21 22  2  0  0  0
 22 23  1  0  0  0
 23 24  2  0  0  0
 24 27  1  0  0  0
 27 28  1  0  0  0
 28 29  1  0  0  0
 29 30  1  0  0  0
 30 31  1  0  0  0
 31 32  1  0  0  0
 32 33  1  0  0  0
 33 34  1  0  0  0
 33 35  1  0  0  0
 24 25  1  0  0  0
 25 26  2  0  0  0
 17 18  1  0  0  0
 18 19  2  0  0  0
 19 14  1  0  0  0
 11  1  1  0  0  0
 26 21  1  0  0  0
  9  3  1  0  0  0
 35 30  1  0  0  0
 13 20  1  0  0  0
  6 12  1  0  0  0
M  END
> <minimizedAffinity>
-8.79918

$$$$
CHEMBL184679


 35 39  0  0  0  0  0  0  0  0999 V2000
   33.1949   -2.7203   18.3767 C   0  0  0  0  0  0  0  0  0  0  0  0
   32.8930   -3.0465   16.6089 S   0  0  0  0  0  0  0  0  0  0  0  0
   34.4616   -3.8692   16.3270 C   0  0  0  0  0  0  0  0  0  0  0  0
   35.1324   -3.6569   15.1173 C   0  0  0  0  0  0  0  0  0  0  0  0
   36.3200   -4.3463   14.8389 C   0  0  0  0  0  0  0  0  0  0  0  0
   36.9832   -4.1564   13.6275 O   0  0  0  0  0  0  0  0  0  0  0  0
   36.8353   -5.2478   15.7742 C   0  0  0  0  0  0  0  0  0  0  0  0
   36.1825   -5.4418   16.9941 C   0  0  0  0  0  0  0  0  0  0  0  0
   35.0095   -4.7374   17.2896 C   0  0  0  0  0  0  0  0  0  0  0  0
   34.4644   -4.8600   18.5752 O   0  0  0  0  0  0  0  0  0  0  0  0
   33.3888   -4.0763   19.1114 C   0  0  0  0  0  0  0  0  0  0  0  0
   36.6352   -3.5086   12.9275 H   0  0  0  0  0  0  0  0  0  0  0  0
   37.2371    1.3332   18.7795 O   0  0  0  0  0  0  0  0  0  0  0  0
   36.2465    0.3559   18.7015 C   0  0  0  0  0  0  0  0  0  0  0  0
   35.2357    0.4377   17.7372 C   0  0  0  0  0  0  0  0  0  0  0  0
   34.2529   -0.5537   17.6651 C   0  0  0  0  0  0  0  0  0  0  0  0
   34.2601   -1.6442   18.5564 C   0  0  0  0  0  0  0  0  0  0  0  0
   35.2886   -1.7184   19.5196 C   0  0  0  0  0  0  0  0  0  0  0  0
   36.2661   -0.7203   19.5933 C   0  0  0  0  0  0  0  0  0  0  0  0
   37.2759    2.1063   18.1248 H   0  0  0  0  0  0  0  0  0  0  0  0
   33.5334   -3.9066   20.6154 C   0  0  0  0  0  0  0  0  0  0  0  0
   34.6929   -4.3205   21.2974 C   0  0  0  0  0  0  0  0  0  0  0  0
   34.7912   -4.1860   22.6852 C   0  0  0  0  0  0  0  0  0  0  0  0
   33.7323   -3.6267   23.4223 C   0  0  0  0  0  0  0  0  0  0  0  0
   32.5841   -3.2015   22.7455 C   0  0  0  0  0  0  0  0  0  0  0  0
   32.4769   -3.3519   21.3600 C   0  0  0  0  0  0  0  0  0  0  0  0
   33.7767   -3.4737   24.8182 O   0  0  0  0  0  0  0  0  0  0  0  0
   32.6450   -3.2375   25.6575 C   0  0  0  0  0  0  0  0  0  0  0  0
   32.7106   -1.8275   26.2563 C   0  0  0  0  0  0  0  0  0  0  0  0
   31.3539   -1.2917   26.4861 N   0  0  0  0  0  0  0  0  0  0  0  0
   30.9989   -1.2106   27.9176 C   0  0  0  0  0  0  0  0  0  0  0  0
   29.5443   -1.6650   28.0663 C   0  0  0  0  0  0  0  0  0  0  0  0
   29.0574   -1.9253   26.6528 C   0  0  0  0  0  0  0  0  0  0  0  0
   28.3870   -0.8100   26.1722 F   0  0  0  0  0  0  0  0  0  0  0  0
   30.3321   -2.1416   25.8617 C   0  0  0  0  0  0  0  0  0  0  0  0
 13 14  1  0  0  0
 14 15  2  0  0  0
 15 16  1  0  0  0
 16 17  2  0  0  0
 17  1  1  0  0  0
  1  2  1  0  0  0
  2  3  1  0  0  0
  3  4  2  0  0  0
  4  5  1  0  0  0
  5  6  1  0  0  0
  5  7  2  0  0  0
  7  8  1  0  0  0
  8  9  2  0  0  0
  9 10  1  0  0  0
 10 11  1  0  0  0
 11 21  1  0  0  0
 21 22  2  0  0  0
 22 23  1  0  0  0
 23 24  2  0  0  0
 24 27  1  0  0  0
 27 28  1  0  0  0
 28 29  1  0  0  0
 29 30  1  0  0  0
 30 31  1  0  0  0
 31 32  1  0  0  0
 32 33  1  0  0  0
 33 34  1  0  0  0
 33 35  1  0  0  0
 24 25  1  0  0  0
 25 26  2  0  0  0
 17 18  1  0  0  0
 18 19  2  0  0  0
 19 14  1  0  0  0
 11  1  1  0  0  0
 26 21  1  0  0  0
  9  3  1  0  0  0
 35 30  1  0  0  0
 13 20  1  0  0  0
  6 12  1  0  0  0
M  END
> <minimizedAffinity>
-8.64619

$$$$
CHEMBL184679


 35 39  0  0  0  0  0  0  0  0999 V2000
   38.1153    0.0159   17.5470 C   0  0  0  0  0  0  0  0  0  0  0  0
   38.7480    1.5950   16.8919 S   0  0  0  0  0  0  0  0  0  0  0  0
   37.2111    2.0663   16.0965 C   0  0  0  0  0  0  0  0  0  0  0  0
   37.2586    2.7157   14.8576 C   0  0  0  0  0  0  0  0  0  0  0  0
   36.0781    3.1638   14.2505 C   0  0  0  0  0  0  0  0  0  0  0  0
   36.1185    3.8301   13.0266 O   0  0  0  0  0  0  0  0  0  0  0  0
   34.8499    2.9599   14.8854 C   0  0  0  0  0  0  0  0  0  0  0  0
   34.7966    2.2881   16.1092 C   0  0  0  0  0  0  0  0  0  0  0  0
   35.9694    1.8150   16.7092 C   0  0  0  0  0  0  0  0  0  0  0  0
   35.8569    1.0297   17.8649 O   0  0  0  0  0  0  0  0  0  0  0  0
   36.9230    0.3096   18.5000 C   0  0  0  0  0  0  0  0  0  0  0  0
   36.9942    3.9936   12.5398 H   0  0  0  0  0  0  0  0  0  0  0  0
   37.6002   -3.7483   13.2460 O   0  0  0  0  0  0  0  0  0  0  0  0
   37.7082   -2.8446   14.3016 C   0  0  0  0  0  0  0  0  0  0  0  0
   38.8238   -2.8619   15.1463 C   0  0  0  0  0  0  0  0  0  0  0  0
   38.9230   -1.9445   16.1964 C   0  0  0  0  0  0  0  0  0  0  0  0
   37.9087   -0.9943   16.4238 C   0  0  0  0  0  0  0  0  0  0  0  0
   36.7923   -0.9831   15.5607 C   0  0  0  0  0  0  0  0  0  0  0  0
   36.6933   -1.9077   14.5155 C   0  0  0  0  0  0  0  0  0  0  0  0
   38.3347   -4.4155   13.0383 H   0  0  0  0  0  0  0  0  0  0  0  0
   36.4033   -0.9451   19.1838 C   0  0  0  0  0  0  0  0  0  0  0  0
   37.2753   -1.9430   19.6581 C   0  0  0  0  0  0  0  0  0  0  0  0
   36.7747   -3.1043   20.2534 C   0  0  0  0  0  0  0  0  0  0  0  0
   35.3880   -3.2904   20.3942 C   0  0  0  0  0  0  0  0  0  0  0  0
   34.5192   -2.2940   19.9364 C   0  0  0  0  0  0  0  0  0  0  0  0
   35.0175   -1.1403   19.3245 C   0  0  0  0  0  0  0  0  0  0  0  0
   34.8320   -4.4403   20.9795 O   0  0  0  0  0  0  0  0  0  0  0  0
   33.8729   -5.2988   20.3595 C   0  0  0  0  0  0  0  0  0  0  0  0
   34.5196   -6.0756   19.2066 C   0  0  0  0  0  0  0  0  0  0  0  0
   34.0041   -5.6074   17.9045 N   0  0  0  0  0  0  0  0  0  0  0  0
   34.9858   -4.8025   17.1493 C   0  0  0  0  0  0  0  0  0  0  0  0
   34.2384   -3.6275   16.5130 C   0  0  0  0  0  0  0  0  0  0  0  0
   32.7776   -3.8426   16.8632 C   0  0  0  0  0  0  0  0  0  0  0  0
   32.1311   -4.4831   15.8163 F   0  0  0  0  0  0  0  0  0  0  0  0
   32.8228   -4.7519   18.0751 C   0  0  0  0  0  0  0  0  0  0  0  0
 13 14  1  0  0  0
 14 15  2  0  0  0
 15 16  1  0  0  0
 16 17  2  0  0  0
 17  1  1  0  0  0
  1  2  1  0  0  0
  2  3  1  0  0  0
  3  4  2  0  0  0
  4  5  1  0  0  0
  5  6  1  0  0  0
  5  7  2  0  0  0
  7  8  1  0  0  0
  8  9  2  0  0  0
  9 10  1  0  0  0
 10 11  1  0  0  0
 11 21  1  0  0  0
 21 22  2  0  0  0
 22 23  1  0  0  0
 23 24  2  0  0  0
 24 27  1  0  0  0
 27 28  1  0  0  0
 28 29  1  0  0  0
 29 30  1  0  0  0
 30 31  1  0  0  0
 31 32  1  0  0  0
 32 33  1  0  0  0
 33 34  1  0  0  0
 33 35  1  0  0  0
 24 25  1  0  0  0
 25 26  2  0  0  0
 17 18  1  0  0  0
 18 19  2  0  0  0
 19 14  1  0  0  0
 11  1  1  0  0  0
 26 21  1  0  0  0
  9  3  1  0  0  0
 35 30  1  0  0  0
 13 20  1  0  0  0
  6 12  1  0  0  0
M  END
> <minimizedAffinity>
-8.61016

$$$$
CHEMBL184679


 35 39  0  0  0  0  0  0  0  0999 V2000
   35.7828   -1.3589   16.5800 C   0  0  0  0  0  0  0  0  0  0  0  0
   36.1951   -1.3819   14.8045 S   0  0  0  0  0  0  0  0  0  0  0  0
   37.9054   -1.8665   15.0428 C   0  0  0  0  0  0  0  0  0  0  0  0
   38.8892   -1.3173   14.2127 C   0  0  0  0  0  0  0  0  0  0  0  0
   40.2215   -1.7358   14.3255 C   0  0  0  0  0  0  0  0  0  0  0  0
   41.2039   -1.2092   13.4883 O   0  0  0  0  0  0  0  0  0  0  0  0
   40.5673   -2.7045   15.2717 C   0  0  0  0  0  0  0  0  0  0  0  0
   39.5924   -3.2349   16.1201 C   0  0  0  0  0  0  0  0  0  0  0  0
   38.2641   -2.8028   16.0303 C   0  0  0  0  0  0  0  0  0  0  0  0
   37.3484   -3.2593   16.9886 O   0  0  0  0  0  0  0  0  0  0  0  0
   36.0074   -2.7810   17.1659 C   0  0  0  0  0  0  0  0  0  0  0  0
   40.9853   -0.5041   12.7913 H   0  0  0  0  0  0  0  0  0  0  0  0
   38.3625    3.1831   18.9566 O   0  0  0  0  0  0  0  0  0  0  0  0
   37.7227    2.0781   18.3979 C   0  0  0  0  0  0  0  0  0  0  0  0
   36.8806    2.2241   17.2897 C   0  0  0  0  0  0  0  0  0  0  0  0
   36.2514    1.1061   16.7345 C   0  0  0  0  0  0  0  0  0  0  0  0
   36.4498   -0.1783   17.2772 C   0  0  0  0  0  0  0  0  0  0  0  0
   37.3066   -0.3128   18.3904 C   0  0  0  0  0  0  0  0  0  0  0  0
   37.9284    0.8096   18.9477 C   0  0  0  0  0  0  0  0  0  0  0  0
   38.2666    4.1113   18.5602 H   0  0  0  0  0  0  0  0  0  0  0  0
   35.5785   -2.8841   18.6210 C   0  0  0  0  0  0  0  0  0  0  0  0
   36.4641   -3.3236   19.6227 C   0  0  0  0  0  0  0  0  0  0  0  0
   36.0392   -3.4431   20.9490 C   0  0  0  0  0  0  0  0  0  0  0  0
   34.7181   -3.1182   21.3045 C   0  0  0  0  0  0  0  0  0  0  0  0
   33.8394   -2.6677   20.3135 C   0  0  0  0  0  0  0  0  0  0  0  0
   34.2576   -2.5649   18.9836 C   0  0  0  0  0  0  0  0  0  0  0  0
   34.2379   -3.2255   22.6205 O   0  0  0  0  0  0  0  0  0  0  0  0
   32.9225   -2.8690   23.0492 C   0  0  0  0  0  0  0  0  0  0  0  0
   32.6077   -3.5200   24.4011 C   0  0  0  0  0  0  0  0  0  0  0  0
   31.9992   -2.5421   25.3252 N   0  0  0  0  0  0  0  0  0  0  0  0
   31.9874   -1.1669   24.7863 C   0  0  0  0  0  0  0  0  0  0  0  0
   32.3532   -0.2133   25.9270 C   0  0  0  0  0  0  0  0  0  0  0  0
   32.4888   -1.0910   27.1575 C   0  0  0  0  0  0  0  0  0  0  0  0
   31.3029   -1.0806   27.8770 F   0  0  0  0  0  0  0  0  0  0  0  0
   32.7375   -2.4755   26.5927 C   0  0  0  0  0  0  0  0  0  0  0  0
 13 14  1  0  0  0
 14 15  2  0  0  0
 15 16  1  0  0  0
 16 17  2  0  0  0
 17  1  1  0  0  0
  1  2  1  0  0  0
  2  3  1  0  0  0
  3  4  2  0  0  0
  4  5  1  0  0  0
  5  6  1  0  0  0
  5  7  2  0  0  0
  7  8  1  0  0  0
  8  9  2  0  0  0
  9 10  1  0  0  0
 10 11  1  0  0  0
 11 21  1  0  0  0
 21 22  2  0  0  0
 22 23  1  0  0  0
 23 24  2  0  0  0
 24 27  1  0  0  0
 27 28  1  0  0  0
 28 29  1  0  0  0
 29 30  1  0  0  0
 30 31  1  0  0  0
 31 32  1  0  0  0
 32 33  1  0  0  0
 33 34  1  0  0  0
 33 35  1  0  0  0
 24 25  1  0  0  0
 25 26  2  0  0  0
 17 18  1  0  0  0
 18 19  2  0  0  0
 19 14  1  0  0  0
 11  1  1  0  0  0
 26 21  1  0  0  0
  9  3  1  0  0  0
 35 30  1  0  0  0
 13 20  1  0  0  0
  6 12  1  0  0  0
M  END
> <minimizedAffinity>
-8.51214

$$$$
CHEMBL184679


 35 39  0  0  0  0  0  0  0  0999 V2000
   37.5780    0.7465   18.0960 C   0  0  0  0  0  0  0  0  0  0  0  0
   37.9876    2.5225   18.0642 S   0  0  0  0  0  0  0  0  0  0  0  0
   36.8261    2.9321   16.7604 C   0  0  0  0  0  0  0  0  0  0  0  0
   37.1906    3.8821   15.7995 C   0  0  0  0  0  0  0  0  0  0  0  0
   36.2747    4.2776   14.8159 C   0  0  0  0  0  0  0  0  0  0  0  0
   36.6226    5.2386   13.8678 O   0  0  0  0  0  0  0  0  0  0  0  0
   34.9935    3.7196   14.7953 C   0  0  0  0  0  0  0  0  0  0  0  0
   34.6356    2.7513   15.7366 C   0  0  0  0  0  0  0  0  0  0  0  0
   35.5540    2.3327   16.7064 C   0  0  0  0  0  0  0  0  0  0  0  0
   35.2001    1.2647   17.5426 O   0  0  0  0  0  0  0  0  0  0  0  0
   36.0743    0.5846   18.4546 C   0  0  0  0  0  0  0  0  0  0  0  0
   37.5450    5.6626   13.8555 H   0  0  0  0  0  0  0  0  0  0  0  0
   39.7118   -1.6745   13.3506 O   0  0  0  0  0  0  0  0  0  0  0  0
   39.1883   -1.1072   14.5111 C   0  0  0  0  0  0  0  0  0  0  0  0
   40.0276   -0.4980   15.4507 C   0  0  0  0  0  0  0  0  0  0  0  0
   39.4883    0.0739   16.6066 C   0  0  0  0  0  0  0  0  0  0  0  0
   38.1008    0.0461   16.8466 C   0  0  0  0  0  0  0  0  0  0  0  0
   37.2648   -0.5652   15.8880 C   0  0  0  0  0  0  0  0  0  0  0  0
   37.8093   -1.1431   14.7362 C   0  0  0  0  0  0  0  0  0  0  0  0
   40.7019   -1.6326   13.1366 H   0  0  0  0  0  0  0  0  0  0  0  0
   35.6693   -0.8720   18.6160 C   0  0  0  0  0  0  0  0  0  0  0  0
   34.4941   -1.3811   18.0323 C   0  0  0  0  0  0  0  0  0  0  0  0
   34.1231   -2.7154   18.2215 C   0  0  0  0  0  0  0  0  0  0  0  0
   34.9249   -3.5737   18.9946 C   0  0  0  0  0  0  0  0  0  0  0  0
   36.1008   -3.0743   19.5645 C   0  0  0  0  0  0  0  0  0  0  0  0
   36.4639   -1.7356   19.3913 C   0  0  0  0  0  0  0  0  0  0  0  0
   34.5958   -4.9207   19.2210 O   0  0  0  0  0  0  0  0  0  0  0  0
   33.8631   -5.7525   18.3198 C   0  0  0  0  0  0  0  0  0  0  0  0
   34.8217   -6.5018   17.3869 C   0  0  0  0  0  0  0  0  0  0  0  0
   34.7057   -6.0003   16.0029 N   0  0  0  0  0  0  0  0  0  0  0  0
   35.7327   -4.9939   15.6644 C   0  0  0  0  0  0  0  0  0  0  0  0
   35.0561   -3.8906   14.8464 C   0  0  0  0  0  0  0  0  0  0  0  0
   33.6224   -4.3510   14.6579 C   0  0  0  0  0  0  0  0  0  0  0  0
   33.4878   -4.9837   13.4307 F   0  0  0  0  0  0  0  0  0  0  0  0
   33.4090   -5.3487   15.7788 C   0  0  0  0  0  0  0  0  0  0  0  0
 13 14  1  0  0  0
 14 15  2  0  0  0
 15 16  1  0  0  0
 16 17  2  0  0  0
 17  1  1  0  0  0
  1  2  1  0  0  0
  2  3  1  0  0  0
  3  4  2  0  0  0
  4  5  1  0  0  0
  5  6  1  0  0  0
  5  7  2  0  0  0
  7  8  1  0  0  0
  8  9  2  0  0  0
  9 10  1  0  0  0
 10 11  1  0  0  0
 11 21  1  0  0  0
 21 22  2  0  0  0
 22 23  1  0  0  0
 23 24  2  0  0  0
 24 27  1  0  0  0
 27 28  1  0  0  0
 28 29  1  0  0  0
 29 30  1  0  0  0
 30 31  1  0  0  0
 31 32  1  0  0  0
 32 33  1  0  0  0
 33 34  1  0  0  0
 33 35  1  0  0  0
 24 25  1  0  0  0
 25 26  2  0  0  0
 17 18  1  0  0  0
 18 19  2  0  0  0
 19 14  1  0  0  0
 11  1  1  0  0  0
 26 21  1  0  0  0
  9  3  1  0  0  0
 35 30  1  0  0  0
 13 20  1  0  0  0
  6 12  1  0  0  0
M  END
> <minimizedAffinity>
-8.51152

$$$$
CHEMBL184679


 35 39  0  0  0  0  0  0  0  0999 V2000
   38.3591   -1.8035   16.9828 C   0  0  0  0  0  0  0  0  0  0  0  0
   39.4932   -0.8878   15.8882 S   0  0  0  0  0  0  0  0  0  0  0  0
   38.2890    0.3526   15.4104 C   0  0  0  0  0  0  0  0  0  0  0  0
   38.2837    0.8220   14.0920 C   0  0  0  0  0  0  0  0  0  0  0  0
   37.4060    1.8455   13.7113 C   0  0  0  0  0  0  0  0  0  0  0  0
   37.4088    2.3333   12.4053 O   0  0  0  0  0  0  0  0  0  0  0  0
   36.5328    2.3976   14.6526 C   0  0  0  0  0  0  0  0  0  0  0  0
   36.5169    1.9127   15.9627 C   0  0  0  0  0  0  0  0  0  0  0  0
   37.3730    0.8728   16.3436 C   0  0  0  0  0  0  0  0  0  0  0  0
   37.2286    0.3266   17.6265 O   0  0  0  0  0  0  0  0  0  0  0  0
   37.8800   -0.8541   18.1165 C   0  0  0  0  0  0  0  0  0  0  0  0
   38.0303    1.9535   11.6981 H   0  0  0  0  0  0  0  0  0  0  0  0
   34.5267   -4.5381   13.7014 O   0  0  0  0  0  0  0  0  0  0  0  0
   35.4519   -3.8875   14.5159 C   0  0  0  0  0  0  0  0  0  0  0  0
   36.8261   -4.0364   14.2976 C   0  0  0  0  0  0  0  0  0  0  0  0
   37.7429   -3.3718   15.1172 C   0  0  0  0  0  0  0  0  0  0  0  0
   37.3041   -2.5477   16.1717 C   0  0  0  0  0  0  0  0  0  0  0  0
   35.9157   -2.4005   16.3769 C   0  0  0  0  0  0  0  0  0  0  0  0
   35.0016   -3.0734   15.5591 C   0  0  0  0  0  0  0  0  0  0  0  0
   34.8169   -5.1049   12.9125 H   0  0  0  0  0  0  0  0  0  0  0  0
   37.0169   -1.5672   19.1453 C   0  0  0  0  0  0  0  0  0  0  0  0
   35.7199   -1.1197   19.4591 C   0  0  0  0  0  0  0  0  0  0  0  0
   34.9564   -1.7702   20.4325 C   0  0  0  0  0  0  0  0  0  0  0  0
   35.4717   -2.8894   21.1101 C   0  0  0  0  0  0  0  0  0  0  0  0
   36.7552   -3.3450   20.7905 C   0  0  0  0  0  0  0  0  0  0  0  0
   37.5271   -2.6848   19.8302 C   0  0  0  0  0  0  0  0  0  0  0  0
   34.7494   -3.5762   22.1004 O   0  0  0  0  0  0  0  0  0  0  0  0
   33.3789   -3.9665   21.9989 C   0  0  0  0  0  0  0  0  0  0  0  0
   33.0638   -4.4408   20.5753 C   0  0  0  0  0  0  0  0  0  0  0  0
   32.2372   -3.4465   19.8621 N   0  0  0  0  0  0  0  0  0  0  0  0
   30.8227   -3.4582   20.2876 C   0  0  0  0  0  0  0  0  0  0  0  0
   29.9553   -3.3033   19.0354 C   0  0  0  0  0  0  0  0  0  0  0  0
   30.9324   -3.1156   17.8896 C   0  0  0  0  0  0  0  0  0  0  0  0
   31.0963   -1.7635   17.6265 F   0  0  0  0  0  0  0  0  0  0  0  0
   32.2285   -3.6995   18.4157 C   0  0  0  0  0  0  0  0  0  0  0  0
 13 14  1  0  0  0
 14 15  2  0  0  0
 15 16  1  0  0  0
 16 17  2  0  0  0
 17  1  1  0  0  0
  1  2  1  0  0  0
  2  3  1  0  0  0
  3  4  2  0  0  0
  4  5  1  0  0  0
  5  6  1  0  0  0
  5  7  2  0  0  0
  7  8  1  0  0  0
  8  9  2  0  0  0
  9 10  1  0  0  0
 10 11  1  0  0  0
 11 21  1  0  0  0
 21 22  2  0  0  0
 22 23  1  0  0  0
 23 24  2  0  0  0
 24 27  1  0  0  0
 27 28  1  0  0  0
 28 29  1  0  0  0
 29 30  1  0  0  0
 30 31  1  0  0  0
 31 32  1  0  0  0
 32 33  1  0  0  0
 33 34  1  0  0  0
 33 35  1  0  0  0
 24 25  1  0  0  0
 25 26  2  0  0  0
 17 18  1  0  0  0
 18 19  2  0  0  0
 19 14  1  0  0  0
 11  1  1  0  0  0
 26 21  1  0  0  0
  9  3  1  0  0  0
 35 30  1  0  0  0
 13 20  1  0  0  0
  6 12  1  0  0  0
M  END
> <minimizedAffinity>
-8.48876

$$$$
CHEMBL184679


 35 39  0  0  0  0  0  0  0  0999 V2000
   37.0073   -0.7390   14.6064 C   0  0  0  0  0  0  0  0  0  0  0  0
   37.9766    0.0666   13.2894 S   0  0  0  0  0  0  0  0  0  0  0  0
   39.5567   -0.5881   13.8293 C   0  0  0  0  0  0  0  0  0  0  0  0
   40.6932    0.2242   13.7450 C   0  0  0  0  0  0  0  0  0  0  0  0
   41.9522   -0.2867   14.0869 C   0  0  0  0  0  0  0  0  0  0  0  0
   43.0922    0.5093   13.9858 O   0  0  0  0  0  0  0  0  0  0  0  0
   42.0712   -1.6120   14.5143 C   0  0  0  0  0  0  0  0  0  0  0  0
   40.9350   -2.4173   14.6253 C   0  0  0  0  0  0  0  0  0  0  0  0
   39.6708   -1.9058   14.3100 C   0  0  0  0  0  0  0  0  0  0  0  0
   38.5465   -2.7033   14.5653 O   0  0  0  0  0  0  0  0  0  0  0  0
   37.1782   -2.2791   14.4849 C   0  0  0  0  0  0  0  0  0  0  0  0
   43.0394    1.4756   13.6791 H   0  0  0  0  0  0  0  0  0  0  0  0
   38.0392    1.9574   19.5660 O   0  0  0  0  0  0  0  0  0  0  0  0
   37.7789    1.2854   18.3730 C   0  0  0  0  0  0  0  0  0  0  0  0
   36.8291    1.7748   17.4692 C   0  0  0  0  0  0  0  0  0  0  0  0
   36.5836    1.0950   16.2727 C   0  0  0  0  0  0  0  0  0  0  0  0
   37.2805   -0.0876   15.9576 C   0  0  0  0  0  0  0  0  0  0  0  0
   38.2404   -0.5668   16.8743 C   0  0  0  0  0  0  0  0  0  0  0  0
   38.4778    0.1124   18.0741 C   0  0  0  0  0  0  0  0  0  0  0  0
   37.5793    2.8308   19.7971 H   0  0  0  0  0  0  0  0  0  0  0  0
   36.3114   -3.0397   15.4758 C   0  0  0  0  0  0  0  0  0  0  0  0
   36.7375   -4.2508   16.0525 C   0  0  0  0  0  0  0  0  0  0  0  0
   35.9106   -4.9509   16.9355 C   0  0  0  0  0  0  0  0  0  0  0  0
   34.6391   -4.4504   17.2674 C   0  0  0  0  0  0  0  0  0  0  0  0
   34.2184   -3.2397   16.7068 C   0  0  0  0  0  0  0  0  0  0  0  0
   35.0368   -2.5475   15.8096 C   0  0  0  0  0  0  0  0  0  0  0  0
   33.7664   -5.1162   18.1444 O   0  0  0  0  0  0  0  0  0  0  0  0
   33.1881   -4.5475   19.3205 C   0  0  0  0  0  0  0  0  0  0  0  0
   33.9813   -4.9707   20.5626 C   0  0  0  0  0  0  0  0  0  0  0  0
   34.9713   -3.9383   20.9295 N   0  0  0  0  0  0  0  0  0  0  0  0
   34.6516   -2.6072   20.3747 C   0  0  0  0  0  0  0  0  0  0  0  0
   35.9584   -1.9775   19.8846 C   0  0  0  0  0  0  0  0  0  0  0  0
   37.0472   -2.9653   20.2610 C   0  0  0  0  0  0  0  0  0  0  0  0
   37.6241   -2.5943   21.4667 F   0  0  0  0  0  0  0  0  0  0  0  0
   36.3079   -4.2783   20.4253 C   0  0  0  0  0  0  0  0  0  0  0  0
 13 14  1  0  0  0
 14 15  2  0  0  0
 15 16  1  0  0  0
 16 17  2  0  0  0
 17  1  1  0  0  0
  1  2  1  0  0  0
  2  3  1  0  0  0
  3  4  2  0  0  0
  4  5  1  0  0  0
  5  6  1  0  0  0
  5  7  2  0  0  0
  7  8  1  0  0  0
  8  9  2  0  0  0
  9 10  1  0  0  0
 10 11  1  0  0  0
 11 21  1  0  0  0
 21 22  2  0  0  0
 22 23  1  0  0  0
 23 24  2  0  0  0
 24 27  1  0  0  0
 27 28  1  0  0  0
 28 29  1  0  0  0
 29 30  1  0  0  0
 30 31  1  0  0  0
 31 32  1  0  0  0
 32 33  1  0  0  0
 33 34  1  0  0  0
 33 35  1  0  0  0
 24 25  1  0  0  0
 25 26  2  0  0  0
 17 18  1  0  0  0
 18 19  2  0  0  0
 19 14  1  0  0  0
 11  1  1  0  0  0
 26 21  1  0  0  0
  9  3  1  0  0  0
 35 30  1  0  0  0
 13 20  1  0  0  0
  6 12  1  0  0  0
M  END
> <minimizedAffinity>
-8.44385

$$$$
CHEMBL184679


 35 39  0  0  0  0  0  0  0  0999 V2000
   31.2107   -0.5868   27.6809 C   0  0  0  0  0  0  0  0  0  0  0  0
   30.0403    0.3326   26.6241 S   0  0  0  0  0  0  0  0  0  0  0  0
   28.6197   -0.6407   27.1279 C   0  0  0  0  0  0  0  0  0  0  0  0
   27.3785   -0.0040   27.2523 C   0  0  0  0  0  0  0  0  0  0  0  0
   26.2318   -0.7436   27.5564 C   0  0  0  0  0  0  0  0  0  0  0  0
   25.0029   -0.0958   27.6616 O   0  0  0  0  0  0  0  0  0  0  0  0
   26.3277   -2.1279   27.7443 C   0  0  0  0  0  0  0  0  0  0  0  0
   27.5680   -2.7639   27.6471 C   0  0  0  0  0  0  0  0  0  0  0  0
   28.7232   -2.0274   27.3605 C   0  0  0  0  0  0  0  0  0  0  0  0
   29.9573   -2.6963   27.3683 O   0  0  0  0  0  0  0  0  0  0  0  0
   31.2478   -2.0804   27.2712 C   0  0  0  0  0  0  0  0  0  0  0  0
   24.1523   -0.6057   27.8662 H   0  0  0  0  0  0  0  0  0  0  0  0
   36.5022    1.6050   27.6468 O   0  0  0  0  0  0  0  0  0  0  0  0
   35.2077    1.0906   27.6470 C   0  0  0  0  0  0  0  0  0  0  0  0
   34.8263    0.1804   28.6367 C   0  0  0  0  0  0  0  0  0  0  0  0
   33.5312   -0.3455   28.6486 C   0  0  0  0  0  0  0  0  0  0  0  0
   32.5927    0.0425   27.6760 C   0  0  0  0  0  0  0  0  0  0  0  0
   32.9911    0.9500   26.6732 C   0  0  0  0  0  0  0  0  0  0  0  0
   34.2872    1.4726   26.6635 C   0  0  0  0  0  0  0  0  0  0  0  0
   36.8094    2.2657   26.9423 H   0  0  0  0  0  0  0  0  0  0  0  0
   31.8417   -2.3204   25.8948 C   0  0  0  0  0  0  0  0  0  0  0  0
   32.9321   -3.1955   25.7480 C   0  0  0  0  0  0  0  0  0  0  0  0
   33.5208   -3.3957   24.4969 C   0  0  0  0  0  0  0  0  0  0  0  0
   33.0259   -2.7232   23.3646 C   0  0  0  0  0  0  0  0  0  0  0  0
   31.9362   -1.8581   23.5075 C   0  0  0  0  0  0  0  0  0  0  0  0
   31.3467   -1.6567   24.7582 C   0  0  0  0  0  0  0  0  0  0  0  0
   33.5854   -2.8849   22.0890 O   0  0  0  0  0  0  0  0  0  0  0  0
   33.2980   -3.9743   21.2153 C   0  0  0  0  0  0  0  0  0  0  0  0
   33.3519   -3.5015   19.7627 C   0  0  0  0  0  0  0  0  0  0  0  0
   32.0399   -3.6575   19.1034 N   0  0  0  0  0  0  0  0  0  0  0  0
   31.8024   -2.6529   18.0595 C   0  0  0  0  0  0  0  0  0  0  0  0
   30.2960   -2.4462   17.9752 C   0  0  0  0  0  0  0  0  0  0  0  0
   29.7278   -3.0611   19.2456 C   0  0  0  0  0  0  0  0  0  0  0  0
   28.9505   -4.1663   18.9352 F   0  0  0  0  0  0  0  0  0  0  0  0
   30.9407   -3.4881   20.0559 C   0  0  0  0  0  0  0  0  0  0  0  0
 13 14  1  0  0  0
 14 15  2  0  0  0
 15 16  1  0  0  0
 16 17  2  0  0  0
 17  1  1  0  0  0
  1  2  1  0  0  0
  2  3  1  0  0  0
  3  4  2  0  0  0
  4  5  1  0  0  0
  5  6  1  0  0  0
  5  7  2  0  0  0
  7  8  1  0  0  0
  8  9  2  0  0  0
  9 10  1  0  0  0
 10 11  1  0  0  0
 11 21  1  0  0  0
 21 22  2  0  0  0
 22 23  1  0  0  0
 23 24  2  0  0  0
 24 27  1  0  0  0
 27 28  1  0  0  0
 28 29  1  0  0  0
 29 30  1  0  0  0
 30 31  1  0  0  0
 31 32  1  0  0  0
 32 33  1  0  0  0
 33 34  1  0  0  0
 33 35  1  0  0  0
 24 25  1  0  0  0
 25 26  2  0  0  0
 17 18  1  0  0  0
 18 19  2  0  0  0
 19 14  1  0  0  0
 11  1  1  0  0  0
 26 21  1  0  0  0
  9  3  1  0  0  0
 35 30  1  0  0  0
 13 20  1  0  0  0
  6 12  1  0  0  0
M  END
> <minimizedAffinity>
-11.49805

$$$$
CHEMBL184679


 35 39  0  0  0  0  0  0  0  0999 V2000
   31.2272   -0.6100   27.7779 C   0  0  0  0  0  0  0  0  0  0  0  0
   30.0642    0.3661   26.7645 S   0  0  0  0  0  0  0  0  0  0  0  0
   28.6343   -0.6123   27.2310 C   0  0  0  0  0  0  0  0  0  0  0  0
   27.4005    0.0319   27.3861 C   0  0  0  0  0  0  0  0  0  0  0  0
   26.2465   -0.7074   27.6619 C   0  0  0  0  0  0  0  0  0  0  0  0
   25.0251   -0.0515   27.7983 O   0  0  0  0  0  0  0  0  0  0  0  0
   26.3278   -2.0994   27.7907 C   0  0  0  0  0  0  0  0  0  0  0  0
   27.5608   -2.7442   27.6628 C   0  0  0  0  0  0  0  0  0  0  0  0
   28.7232   -2.0087   27.4042 C   0  0  0  0  0  0  0  0  0  0  0  0
   29.9499   -2.6907   27.3798 O   0  0  0  0  0  0  0  0  0  0  0  0
   31.2469   -2.0852   27.3051 C   0  0  0  0  0  0  0  0  0  0  0  0
   24.1695   -0.5604   27.9836 H   0  0  0  0  0  0  0  0  0  0  0  0
   36.5425    1.5230   27.8304 O   0  0  0  0  0  0  0  0  0  0  0  0
   35.2425    1.0229   27.8093 C   0  0  0  0  0  0  0  0  0  0  0  0
   34.8340    0.1194   28.7943 C   0  0  0  0  0  0  0  0  0  0  0  0
   33.5331   -0.3921   28.7850 C   0  0  0  0  0  0  0  0  0  0  0  0
   32.6160    0.0040   27.7954 C   0  0  0  0  0  0  0  0  0  0  0  0
   33.0417    0.9046   26.7977 C   0  0  0  0  0  0  0  0  0  0  0  0
   34.3434    1.4128   26.8093 C   0  0  0  0  0  0  0  0  0  0  0  0
   36.8691    2.1786   27.1299 H   0  0  0  0  0  0  0  0  0  0  0  0
   31.8346   -2.2729   25.9179 C   0  0  0  0  0  0  0  0  0  0  0  0
   31.2891   -1.5720   24.8281 C   0  0  0  0  0  0  0  0  0  0  0  0
   31.7869   -1.7644   23.5370 C   0  0  0  0  0  0  0  0  0  0  0  0
   32.8456   -2.6632   23.3118 C   0  0  0  0  0  0  0  0  0  0  0  0
   33.3946   -3.3555   24.3960 C   0  0  0  0  0  0  0  0  0  0  0  0
   32.8975   -3.1644   25.6878 C   0  0  0  0  0  0  0  0  0  0  0  0
   33.3761   -2.8963   22.0349 O   0  0  0  0  0  0  0  0  0  0  0  0
   34.6327   -3.5224   21.7864 C   0  0  0  0  0  0  0  0  0  0  0  0
   34.6419   -4.1266   20.3824 C   0  0  0  0  0  0  0  0  0  0  0  0
   35.2404   -3.1947   19.4060 N   0  0  0  0  0  0  0  0  0  0  0  0
   36.0461   -2.1436   20.0397 C   0  0  0  0  0  0  0  0  0  0  0  0
   35.9983   -0.9308   19.1200 C   0  0  0  0  0  0  0  0  0  0  0  0
   34.8455   -1.1903   18.1617 C   0  0  0  0  0  0  0  0  0  0  0  0
   35.3244   -1.3516   16.8707 F   0  0  0  0  0  0  0  0  0  0  0  0
   34.2100   -2.4829   18.6470 C   0  0  0  0  0  0  0  0  0  0  0  0
 13 14  1  0  0  0
 14 15  2  0  0  0
 15 16  1  0  0  0
 16 17  2  0  0  0
 17  1  1  0  0  0
  1  2  1  0  0  0
  2  3  1  0  0  0
  3  4  2  0  0  0
  4  5  1  0  0  0
  5  6  1  0  0  0
  5  7  2  0  0  0
  7  8  1  0  0  0
  8  9  2  0  0  0
  9 10  1  0  0  0
 10 11  1  0  0  0
 11 21  1  0  0  0
 21 22  2  0  0  0
 22 23  1  0  0  0
 23 24  2  0  0  0
 24 27  1  0  0  0
 27 28  1  0  0  0
 28 29  1  0  0  0
 29 30  1  0  0  0
 30 31  1  0  0  0
 31 32  1  0  0  0
 32 33  1  0  0  0
 33 34  1  0  0  0
 33 35  1  0  0  0
 24 25  1  0  0  0
 25 26  2  0  0  0
 17 18  1  0  0  0
 18 19  2  0  0  0
 19 14  1  0  0  0
 11  1  1  0  0  0
 26 21  1  0  0  0
  9  3  1  0  0  0
 35 30  1  0  0  0
 13 20  1  0  0  0
  6 12  1  0  0  0
M  END
> <minimizedAffinity>
-10.71821

$$$$
CHEMBL184679


 35 39  0  0  0  0  0  0  0  0999 V2000
   31.2184   -0.5760   27.7016 C   0  0  0  0  0  0  0  0  0  0  0  0
   30.0426    0.3446   26.6517 S   0  0  0  0  0  0  0  0  0  0  0  0
   28.6219   -0.6188   27.1740 C   0  0  0  0  0  0  0  0  0  0  0  0
   27.3854    0.0250   27.3074 C   0  0  0  0  0  0  0  0  0  0  0  0
   26.2377   -0.7070   27.6261 C   0  0  0  0  0  0  0  0  0  0  0  0
   25.0134   -0.0523   27.7402 O   0  0  0  0  0  0  0  0  0  0  0  0
   26.3283   -2.0909   27.8198 C   0  0  0  0  0  0  0  0  0  0  0  0
   27.5642   -2.7340   27.7136 C   0  0  0  0  0  0  0  0  0  0  0  0
   28.7204   -2.0049   27.4123 C   0  0  0  0  0  0  0  0  0  0  0  0
   29.9510   -2.6803   27.4112 O   0  0  0  0  0  0  0  0  0  0  0  0
   31.2437   -2.0717   27.2987 C   0  0  0  0  0  0  0  0  0  0  0  0
   24.1621   -0.5567   27.9555 H   0  0  0  0  0  0  0  0  0  0  0  0
   36.5211    1.5872   27.6172 O   0  0  0  0  0  0  0  0  0  0  0  0
   35.2241    1.0793   27.6284 C   0  0  0  0  0  0  0  0  0  0  0  0
   34.8239    0.2300   28.6638 C   0  0  0  0  0  0  0  0  0  0  0  0
   33.5260   -0.2888   28.6874 C   0  0  0  0  0  0  0  0  0  0  0  0
   32.6036    0.0460   27.6802 C   0  0  0  0  0  0  0  0  0  0  0  0
   33.0210    0.8917   26.6322 C   0  0  0  0  0  0  0  0  0  0  0  0
   34.3197    1.4073   26.6111 C   0  0  0  0  0  0  0  0  0  0  0  0
   36.8418    2.2044   26.8800 H   0  0  0  0  0  0  0  0  0  0  0  0
   31.8230   -2.3213   25.9177 C   0  0  0  0  0  0  0  0  0  0  0  0
   32.9431   -3.1581   25.7716 C   0  0  0  0  0  0  0  0  0  0  0  0
   33.5177   -3.3652   24.5151 C   0  0  0  0  0  0  0  0  0  0  0  0
   32.9786   -2.7385   23.3767 C   0  0  0  0  0  0  0  0  0  0  0  0
   31.8593   -1.9119   23.5193 C   0  0  0  0  0  0  0  0  0  0  0  0
   31.2839   -1.7035   24.7753 C   0  0  0  0  0  0  0  0  0  0  0  0
   33.5221   -2.9089   22.0954 O   0  0  0  0  0  0  0  0  0  0  0  0
   34.7339   -3.6081   21.8206 C   0  0  0  0  0  0  0  0  0  0  0  0
   35.6067   -2.7810   20.8769 C   0  0  0  0  0  0  0  0  0  0  0  0
   36.4657   -3.6501   20.0480 N   0  0  0  0  0  0  0  0  0  0  0  0
   36.5252   -5.0317   20.5411 C   0  0  0  0  0  0  0  0  0  0  0  0
   37.8752   -5.5967   20.1202 C   0  0  0  0  0  0  0  0  0  0  0  0
   38.7165   -4.3923   19.7246 C   0  0  0  0  0  0  0  0  0  0  0  0
   38.9953   -4.4293   18.3670 F   0  0  0  0  0  0  0  0  0  0  0  0
   37.8536   -3.1832   20.0466 C   0  0  0  0  0  0  0  0  0  0  0  0
 13 14  1  0  0  0
 14 15  2  0  0  0
 15 16  1  0  0  0
 16 17  2  0  0  0
 17  1  1  0  0  0
  1  2  1  0  0  0
  2  3  1  0  0  0
  3  4  2  0  0  0
  4  5  1  0  0  0
  5  6  1  0  0  0
  5  7  2  0  0  0
  7  8  1  0  0  0
  8  9  2  0  0  0
  9 10  1  0  0  0
 10 11  1  0  0  0
 11 21  1  0  0  0
 21 22  2  0  0  0
 22 23  1  0  0  0
 23 24  2  0  0  0
 24 27  1  0  0  0
 27 28  1  0  0  0
 28 29  1  0  0  0
 29 30  1  0  0  0
 30 31  1  0  0  0
 31 32  1  0  0  0
 32 33  1  0  0  0
 33 34  1  0  0  0
 33 35  1  0  0  0
 24 25  1  0  0  0
 25 26  2  0  0  0
 17 18  1  0  0  0
 18 19  2  0  0  0
 19 14  1  0  0  0
 11  1  1  0  0  0
 26 21  1  0  0  0
  9  3  1  0  0  0
 35 30  1  0  0  0
 13 20  1  0  0  0
  6 12  1  0  0  0
M  END
> <minimizedAffinity>
-10.55528

$$$$
CHEMBL184679


 35 39  0  0  0  0  0  0  0  0999 V2000
   39.2730   -0.6564   14.7952 C   0  0  0  0  0  0  0  0  0  0  0  0
   40.2101   -2.1784   15.1660 S   0  0  0  0  0  0  0  0  0  0  0  0
   40.6020   -2.5106   13.4470 C   0  0  0  0  0  0  0  0  0  0  0  0
   41.8473   -3.0720   13.1377 C   0  0  0  0  0  0  0  0  0  0  0  0
   42.1555   -3.4271   11.8211 C   0  0  0  0  0  0  0  0  0  0  0  0
   43.3934   -3.9981   11.5342 O   0  0  0  0  0  0  0  0  0  0  0  0
   41.2153   -3.2128   10.8058 C   0  0  0  0  0  0  0  0  0  0  0  0
   39.9816   -2.6290   11.1050 C   0  0  0  0  0  0  0  0  0  0  0  0
   39.6729   -2.2546   12.4179 C   0  0  0  0  0  0  0  0  0  0  0  0
   38.4613   -1.5853   12.6511 O   0  0  0  0  0  0  0  0  0  0  0  0
   38.0606   -0.9781   13.8860 C   0  0  0  0  0  0  0  0  0  0  0  0
   43.6405   -4.2793   10.5932 H   0  0  0  0  0  0  0  0  0  0  0  0
   37.9055    2.0870   19.6334 O   0  0  0  0  0  0  0  0  0  0  0  0
   38.2226    1.4308   18.4463 C   0  0  0  0  0  0  0  0  0  0  0  0
   38.6812    0.1112   18.4877 C   0  0  0  0  0  0  0  0  0  0  0  0
   39.0049   -0.5595   17.3047 C   0  0  0  0  0  0  0  0  0  0  0  0
   38.8616    0.0775   16.0593 C   0  0  0  0  0  0  0  0  0  0  0  0
   38.4121    1.4135   16.0286 C   0  0  0  0  0  0  0  0  0  0  0  0
   38.0909    2.0813   17.2134 C   0  0  0  0  0  0  0  0  0  0  0  0
   37.5716    3.0439   19.6367 H   0  0  0  0  0  0  0  0  0  0  0  0
   36.9965   -1.8219   14.5648 C   0  0  0  0  0  0  0  0  0  0  0  0
   36.8845   -3.1879   14.2520 C   0  0  0  0  0  0  0  0  0  0  0  0
   35.8839   -3.9713   14.8327 C   0  0  0  0  0  0  0  0  0  0  0  0
   34.9750   -3.4008   15.7424 C   0  0  0  0  0  0  0  0  0  0  0  0
   35.0899   -2.0437   16.0606 C   0  0  0  0  0  0  0  0  0  0  0  0
   36.0898   -1.2589   15.4804 C   0  0  0  0  0  0  0  0  0  0  0  0
   33.9498   -4.1423   16.3469 O   0  0  0  0  0  0  0  0  0  0  0  0
   33.1523   -3.6776   17.4335 C   0  0  0  0  0  0  0  0  0  0  0  0
   33.5166   -4.4404   18.7070 C   0  0  0  0  0  0  0  0  0  0  0  0
   34.3843   -3.6287   19.5835 N   0  0  0  0  0  0  0  0  0  0  0  0
   34.2218   -2.1853   19.3695 C   0  0  0  0  0  0  0  0  0  0  0  0
   35.5479   -1.5297   19.7310 C   0  0  0  0  0  0  0  0  0  0  0  0
   36.5634   -2.6616   19.7784 C   0  0  0  0  0  0  0  0  0  0  0  0
   37.0263   -2.8343   21.0737 F   0  0  0  0  0  0  0  0  0  0  0  0
   35.8010   -3.8971   19.3284 C   0  0  0  0  0  0  0  0  0  0  0  0
 13 14  1  0  0  0
 14 15  2  0  0  0
 15 16  1  0  0  0
 16 17  2  0  0  0
 17  1  1  0  0  0
  1  2  1  0  0  0
  2  3  1  0  0  0
  3  4  2  0  0  0
  4  5  1  0  0  0
  5  6  1  0  0  0
  5  7  2  0  0  0
  7  8  1  0  0  0
  8  9  2  0  0  0
  9 10  1  0  0  0
 10 11  1  0  0  0
 11 21  1  0  0  0
 21 22  2  0  0  0
 22 23  1  0  0  0
 23 24  2  0  0  0
 24 27  1  0  0  0
 27 28  1  0  0  0
 28 29  1  0  0  0
 29 30  1  0  0  0
 30 31  1  0  0  0
 31 32  1  0  0  0
 32 33  1  0  0  0
 33 34  1  0  0  0
 33 35  1  0  0  0
 24 25  1  0  0  0
 25 26  2  0  0  0
 17 18  1  0  0  0
 18 19  2  0  0  0
 19 14  1  0  0  0
 11  1  1  0  0  0
 26 21  1  0  0  0
  9  3  1  0  0  0
 35 30  1  0  0  0
 13 20  1  0  0  0
  6 12  1  0  0  0
M  END
> <minimizedAffinity>
-9.18075

$$$$
CHEMBL184679


 35 39  0  0  0  0  0  0  0  0999 V2000
   36.6712   -2.7270   17.7179 C   0  0  0  0  0  0  0  0  0  0  0  0
   35.2573   -1.6193   17.3921 S   0  0  0  0  0  0  0  0  0  0  0  0
   36.2132   -0.1187   17.6237 C   0  0  0  0  0  0  0  0  0  0  0  0
   35.9208    0.9946   16.8258 C   0  0  0  0  0  0  0  0  0  0  0  0
   36.5822    2.2082   17.0356 C   0  0  0  0  0  0  0  0  0  0  0  0
   36.2679    3.3093   16.2422 O   0  0  0  0  0  0  0  0  0  0  0  0
   37.5476    2.3076   18.0450 C   0  0  0  0  0  0  0  0  0  0  0  0
   37.8617    1.1927   18.8264 C   0  0  0  0  0  0  0  0  0  0  0  0
   37.2164   -0.0304   18.6105 C   0  0  0  0  0  0  0  0  0  0  0  0
   37.6347   -1.1437   19.3562 O   0  0  0  0  0  0  0  0  0  0  0  0
   37.2157   -2.4988   19.1502 C   0  0  0  0  0  0  0  0  0  0  0  0
   36.7189    4.2056   16.3791 H   0  0  0  0  0  0  0  0  0  0  0  0
   35.4116   -8.2605   16.9440 O   0  0  0  0  0  0  0  0  0  0  0  0
   35.7027   -6.9094   17.1177 C   0  0  0  0  0  0  0  0  0  0  0  0
   37.0113   -6.5172   17.4129 C   0  0  0  0  0  0  0  0  0  0  0  0
   37.3181   -5.1652   17.5916 C   0  0  0  0  0  0  0  0  0  0  0  0
   36.3204   -4.1825   17.4642 C   0  0  0  0  0  0  0  0  0  0  0  0
   35.0005   -4.5890   17.1805 C   0  0  0  0  0  0  0  0  0  0  0  0
   34.6972   -5.9417   17.0040 C   0  0  0  0  0  0  0  0  0  0  0  0
   34.4727   -8.5767   16.7302 H   0  0  0  0  0  0  0  0  0  0  0  0
   36.2511   -2.9218   20.2437 C   0  0  0  0  0  0  0  0  0  0  0  0
   36.6322   -3.9122   21.1657 C   0  0  0  0  0  0  0  0  0  0  0  0
   35.7430   -4.3467   22.1519 C   0  0  0  0  0  0  0  0  0  0  0  0
   34.4517   -3.7943   22.2356 C   0  0  0  0  0  0  0  0  0  0  0  0
   34.0737   -2.8033   21.3238 C   0  0  0  0  0  0  0  0  0  0  0  0
   34.9618   -2.3681   20.3368 C   0  0  0  0  0  0  0  0  0  0  0  0
   33.5207   -4.2005   23.2022 O   0  0  0  0  0  0  0  0  0  0  0  0
   32.5798   -3.3322   23.8297 C   0  0  0  0  0  0  0  0  0  0  0  0
   32.8094   -3.3249   25.3409 C   0  0  0  0  0  0  0  0  0  0  0  0
   33.2284   -1.9887   25.8089 N   0  0  0  0  0  0  0  0  0  0  0  0
   33.0438   -1.8059   27.2538 C   0  0  0  0  0  0  0  0  0  0  0  0
   32.8126   -0.3191   27.4885 C   0  0  0  0  0  0  0  0  0  0  0  0
   32.4880    0.2643   26.1213 C   0  0  0  0  0  0  0  0  0  0  0  0
   33.4908    1.1348   25.7230 F   0  0  0  0  0  0  0  0  0  0  0  0
   32.4322   -0.9306   25.1837 C   0  0  0  0  0  0  0  0  0  0  0  0
 13 14  1  0  0  0
 14 15  2  0  0  0
 15 16  1  0  0  0
 16 17  2  0  0  0
 17  1  1  0  0  0
  1  2  1  0  0  0
  2  3  1  0  0  0
  3  4  2  0  0  0
  4  5  1  0  0  0
  5  6  1  0  0  0
  5  7  2  0  0  0
  7  8  1  0  0  0
  8  9  2  0  0  0
  9 10  1  0  0  0
 10 11  1  0  0  0
 11 21  1  0  0  0
 21 22  2  0  0  0
 22 23  1  0  0  0
 23 24  2  0  0  0
 24 27  1  0  0  0
 27 28  1  0  0  0
 28 29  1  0  0  0
 29 30  1  0  0  0
 30 31  1  0  0  0
 31 32  1  0  0  0
 32 33  1  0  0  0
 33 34  1  0  0  0
 33 35  1  0  0  0
 24 25  1  0  0  0
 25 26  2  0  0  0
 17 18  1  0  0  0
 18 19  2  0  0  0
 19 14  1  0  0  0
 11  1  1  0  0  0
 26 21  1  0  0  0
  9  3  1  0  0  0
 35 30  1  0  0  0
 13 20  1  0  0  0
  6 12  1  0  0  0
M  END
> <minimizedAffinity>
-9.12183

$$$$
CHEMBL184679


 35 39  0  0  0  0  0  0  0  0999 V2000
   35.3897   -2.7358   17.6859 C   0  0  0  0  0  0  0  0  0  0  0  0
   34.4648   -1.1773   17.9042 S   0  0  0  0  0  0  0  0  0  0  0  0
   35.9370   -0.1516   17.8965 C   0  0  0  0  0  0  0  0  0  0  0  0
   35.8705    1.1154   17.3034 C   0  0  0  0  0  0  0  0  0  0  0  0
   36.9689    1.9787   17.3549 C   0  0  0  0  0  0  0  0  0  0  0  0
   36.8799    3.2411   16.7724 O   0  0  0  0  0  0  0  0  0  0  0  0
   38.1440    1.5700   17.9974 C   0  0  0  0  0  0  0  0  0  0  0  0
   38.2243    0.2970   18.5679 C   0  0  0  0  0  0  0  0  0  0  0  0
   37.1348   -0.5794   18.5048 C   0  0  0  0  0  0  0  0  0  0  0  0
   37.2975   -1.8799   19.0076 O   0  0  0  0  0  0  0  0  0  0  0  0
   36.3612   -2.9566   18.8724 C   0  0  0  0  0  0  0  0  0  0  0  0
   37.6529    3.8944   16.8058 H   0  0  0  0  0  0  0  0  0  0  0  0
   31.8376   -7.1250   16.7253 O   0  0  0  0  0  0  0  0  0  0  0  0
   32.7137   -6.0703   16.9715 C   0  0  0  0  0  0  0  0  0  0  0  0
   32.2235   -4.7624   17.0206 C   0  0  0  0  0  0  0  0  0  0  0  0
   33.0910   -3.6938   17.2651 C   0  0  0  0  0  0  0  0  0  0  0  0
   34.4624   -3.9202   17.4775 C   0  0  0  0  0  0  0  0  0  0  0  0
   34.9499   -5.2415   17.4117 C   0  0  0  0  0  0  0  0  0  0  0  0
   34.0800   -6.3071   17.1656 C   0  0  0  0  0  0  0  0  0  0  0  0
   32.1623   -8.0841   16.6827 H   0  0  0  0  0  0  0  0  0  0  0  0
   35.6603   -3.2119   20.1947 C   0  0  0  0  0  0  0  0  0  0  0  0
   36.1888   -4.1543   21.0941 C   0  0  0  0  0  0  0  0  0  0  0  0
   35.5348   -4.4355   22.2963 C   0  0  0  0  0  0  0  0  0  0  0  0
   34.3366   -3.7746   22.6232 C   0  0  0  0  0  0  0  0  0  0  0  0
   33.8137   -2.8310   21.7330 C   0  0  0  0  0  0  0  0  0  0  0  0
   34.4664   -2.5490   20.5302 C   0  0  0  0  0  0  0  0  0  0  0  0
   33.6391   -4.0259   23.8133 O   0  0  0  0  0  0  0  0  0  0  0  0
   32.5076   -3.2805   24.2570 C   0  0  0  0  0  0  0  0  0  0  0  0
   32.5831   -3.0753   25.7698 C   0  0  0  0  0  0  0  0  0  0  0  0
   33.2234   -1.7867   26.1006 N   0  0  0  0  0  0  0  0  0  0  0  0
   33.1837   -1.4812   27.5361 C   0  0  0  0  0  0  0  0  0  0  0  0
   33.1851    0.0359   27.6685 C   0  0  0  0  0  0  0  0  0  0  0  0
   32.8371    0.5667   26.2857 C   0  0  0  0  0  0  0  0  0  0  0  0
   33.9177    1.2511   25.7508 F   0  0  0  0  0  0  0  0  0  0  0  0
   32.5373   -0.6678   25.4513 C   0  0  0  0  0  0  0  0  0  0  0  0
 13 14  1  0  0  0
 14 15  2  0  0  0
 15 16  1  0  0  0
 16 17  2  0  0  0
 17  1  1  0  0  0
  1  2  1  0  0  0
  2  3  1  0  0  0
  3  4  2  0  0  0
  4  5  1  0  0  0
  5  6  1  0  0  0
  5  7  2  0  0  0
  7  8  1  0  0  0
  8  9  2  0  0  0
  9 10  1  0  0  0
 10 11  1  0  0  0
 11 21  1  0  0  0
 21 22  2  0  0  0
 22 23  1  0  0  0
 23 24  2  0  0  0
 24 27  1  0  0  0
 27 28  1  0  0  0
 28 29  1  0  0  0
 29 30  1  0  0  0
 30 31  1  0  0  0
 31 32  1  0  0  0
 32 33  1  0  0  0
 33 34  1  0  0  0
 33 35  1  0  0  0
 24 25  1  0  0  0
 25 26  2  0  0  0
 17 18  1  0  0  0
 18 19  2  0  0  0
 19 14  1  0  0  0
 11  1  1  0  0  0
 26 21  1  0  0  0
  9  3  1  0  0  0
 35 30  1  0  0  0
 13 20  1  0  0  0
  6 12  1  0  0  0
M  END
> <minimizedAffinity>
-8.95808

$$$$
CHEMBL184679


 35 39  0  0  0  0  0  0  0  0999 V2000
   36.8252   -2.4327   17.4596 C   0  0  0  0  0  0  0  0  0  0  0  0
   37.8386   -2.5715   18.9714 S   0  0  0  0  0  0  0  0  0  0  0  0
   36.4341   -2.9009   20.0383 C   0  0  0  0  0  0  0  0  0  0  0  0
   36.5967   -3.7891   21.1088 C   0  0  0  0  0  0  0  0  0  0  0  0
   35.5532   -4.0041   22.0140 C   0  0  0  0  0  0  0  0  0  0  0  0
   35.7377   -4.8799   23.0815 O   0  0  0  0  0  0  0  0  0  0  0  0
   34.3366   -3.3320   21.8437 C   0  0  0  0  0  0  0  0  0  0  0  0
   34.1605   -2.4648   20.7624 C   0  0  0  0  0  0  0  0  0  0  0  0
   35.1946   -2.2581   19.8421 C   0  0  0  0  0  0  0  0  0  0  0  0
   34.9365   -1.4531   18.7215 O   0  0  0  0  0  0  0  0  0  0  0  0
   35.8075   -1.2727   17.5976 C   0  0  0  0  0  0  0  0  0  0  0  0
   35.0063   -5.0455   23.7620 H   0  0  0  0  0  0  0  0  0  0  0  0
   39.9471   -1.7647   12.7043 O   0  0  0  0  0  0  0  0  0  0  0  0
   39.2049   -1.9362   13.8706 C   0  0  0  0  0  0  0  0  0  0  0  0
   37.8322   -2.1847   13.7855 C   0  0  0  0  0  0  0  0  0  0  0  0
   37.0742   -2.3572   14.9473 C   0  0  0  0  0  0  0  0  0  0  0  0
   37.6826   -2.2965   16.2136 C   0  0  0  0  0  0  0  0  0  0  0  0
   39.0651   -2.0310   16.2898 C   0  0  0  0  0  0  0  0  0  0  0  0
   39.8194   -1.8576   15.1262 C   0  0  0  0  0  0  0  0  0  0  0  0
   40.9436   -1.5823   12.7328 H   0  0  0  0  0  0  0  0  0  0  0  0
   36.4520    0.1009   17.6482 C   0  0  0  0  0  0  0  0  0  0  0  0
   36.3966    0.9398   16.5215 C   0  0  0  0  0  0  0  0  0  0  0  0
   37.0214    2.1894   16.5329 C   0  0  0  0  0  0  0  0  0  0  0  0
   37.7138    2.6255   17.6773 C   0  0  0  0  0  0  0  0  0  0  0  0
   37.7633    1.7954   18.8019 C   0  0  0  0  0  0  0  0  0  0  0  0
   37.1393    0.5453   18.7918 C   0  0  0  0  0  0  0  0  0  0  0  0
   38.3624    3.8673   17.7368 O   0  0  0  0  0  0  0  0  0  0  0  0
   38.6840    4.6636   16.5987 C   0  0  0  0  0  0  0  0  0  0  0  0
   39.2500    6.0094   17.0514 C   0  0  0  0  0  0  0  0  0  0  0  0
   39.6866    5.9560   18.4609 N   0  0  0  0  0  0  0  0  0  0  0  0
   38.9758    6.9150   19.3156 C   0  0  0  0  0  0  0  0  0  0  0  0
   39.9171    7.2774   20.4564 C   0  0  0  0  0  0  0  0  0  0  0  0
   41.2945    6.8058   20.0146 C   0  0  0  0  0  0  0  0  0  0  0  0
   41.7310    5.7740   20.8314 F   0  0  0  0  0  0  0  0  0  0  0  0
   41.1036    6.3006   18.5939 C   0  0  0  0  0  0  0  0  0  0  0  0
 13 14  1  0  0  0
 14 15  2  0  0  0
 15 16  1  0  0  0
 16 17  2  0  0  0
 17  1  1  0  0  0
  1  2  1  0  0  0
  2  3  1  0  0  0
  3  4  2  0  0  0
  4  5  1  0  0  0
  5  6  1  0  0  0
  5  7  2  0  0  0
  7  8  1  0  0  0
  8  9  2  0  0  0
  9 10  1  0  0  0
 10 11  1  0  0  0
 11 21  1  0  0  0
 21 22  2  0  0  0
 22 23  1  0  0  0
 23 24  2  0  0  0
 24 27  1  0  0  0
 27 28  1  0  0  0
 28 29  1  0  0  0
 29 30  1  0  0  0
 30 31  1  0  0  0
 31 32  1  0  0  0
 32 33  1  0  0  0
 33 34  1  0  0  0
 33 35  1  0  0  0
 24 25  1  0  0  0
 25 26  2  0  0  0
 17 18  1  0  0  0
 18 19  2  0  0  0
 19 14  1  0  0  0
 11  1  1  0  0  0
 26 21  1  0  0  0
  9  3  1  0  0  0
 35 30  1  0  0  0
 13 20  1  0  0  0
  6 12  1  0  0  0
M  END
> <minimizedAffinity>
-8.60470

$$$$
CHEMBL184679


 35 39  0  0  0  0  0  0  0  0999 V2000
   35.4350   -2.7986   17.7049 C   0  0  0  0  0  0  0  0  0  0  0  0
   34.4434   -1.2771   17.8888 S   0  0  0  0  0  0  0  0  0  0  0  0
   35.8748   -0.1972   17.9524 C   0  0  0  0  0  0  0  0  0  0  0  0
   35.7874    1.0702   17.3630 C   0  0  0  0  0  0  0  0  0  0  0  0
   36.8492    1.9736   17.4681 C   0  0  0  0  0  0  0  0  0  0  0  0
   36.7390    3.2355   16.8883 O   0  0  0  0  0  0  0  0  0  0  0  0
   38.0089    1.6047   18.1609 C   0  0  0  0  0  0  0  0  0  0  0  0
   38.1113    0.3320   18.7282 C   0  0  0  0  0  0  0  0  0  0  0  0
   37.0594   -0.5840   18.6119 C   0  0  0  0  0  0  0  0  0  0  0  0
   37.2482   -1.8808   19.1152 O   0  0  0  0  0  0  0  0  0  0  0  0
   36.3599   -2.9908   18.9327 C   0  0  0  0  0  0  0  0  0  0  0  0
   37.4847    3.9170   16.9596 H   0  0  0  0  0  0  0  0  0  0  0  0
   32.1976   -7.4577   16.9194 O   0  0  0  0  0  0  0  0  0  0  0  0
   32.9721   -6.3136   17.0968 C   0  0  0  0  0  0  0  0  0  0  0  0
   34.3450   -6.4378   17.3273 C   0  0  0  0  0  0  0  0  0  0  0  0
   35.1347   -5.2987   17.5089 C   0  0  0  0  0  0  0  0  0  0  0  0
   34.5631   -4.0154   17.4492 C   0  0  0  0  0  0  0  0  0  0  0  0
   33.1750   -3.9007   17.2306 C   0  0  0  0  0  0  0  0  0  0  0  0
   32.3884   -5.0417   17.0510 C   0  0  0  0  0  0  0  0  0  0  0  0
   31.1997   -7.4009   16.7515 H   0  0  0  0  0  0  0  0  0  0  0  0
   35.6107   -3.2807   20.2209 C   0  0  0  0  0  0  0  0  0  0  0  0
   34.4259   -2.5819   20.5116 C   0  0  0  0  0  0  0  0  0  0  0  0
   33.7457   -2.8024   21.7118 C   0  0  0  0  0  0  0  0  0  0  0  0
   34.2388   -3.7315   22.6461 C   0  0  0  0  0  0  0  0  0  0  0  0
   35.4132   -4.4333   22.3550 C   0  0  0  0  0  0  0  0  0  0  0  0
   36.0948   -4.2135   21.1552 C   0  0  0  0  0  0  0  0  0  0  0  0
   33.5971   -3.9840   23.8670 O   0  0  0  0  0  0  0  0  0  0  0  0
   32.4924   -3.2340   24.3668 C   0  0  0  0  0  0  0  0  0  0  0  0
   32.9615   -2.3036   25.4852 C   0  0  0  0  0  0  0  0  0  0  0  0
   31.8308   -1.5434   26.0542 N   0  0  0  0  0  0  0  0  0  0  0  0
   31.8901   -1.4416   27.5176 C   0  0  0  0  0  0  0  0  0  0  0  0
   30.4557   -1.3158   28.0135 C   0  0  0  0  0  0  0  0  0  0  0  0
   29.5804   -1.7358   26.8421 C   0  0  0  0  0  0  0  0  0  0  0  0
   28.8420   -0.6549   26.3856 F   0  0  0  0  0  0  0  0  0  0  0  0
   30.5513   -2.1951   25.7667 C   0  0  0  0  0  0  0  0  0  0  0  0
 13 14  1  0  0  0
 14 15  2  0  0  0
 15 16  1  0  0  0
 16 17  2  0  0  0
 17  1  1  0  0  0
  1  2  1  0  0  0
  2  3  1  0  0  0
  3  4  2  0  0  0
  4  5  1  0  0  0
  5  6  1  0  0  0
  5  7  2  0  0  0
  7  8  1  0  0  0
  8  9  2  0  0  0
  9 10  1  0  0  0
 10 11  1  0  0  0
 11 21  1  0  0  0
 21 22  2  0  0  0
 22 23  1  0  0  0
 23 24  2  0  0  0
 24 27  1  0  0  0
 27 28  1  0  0  0
 28 29  1  0  0  0
 29 30  1  0  0  0
 30 31  1  0  0  0
 31 32  1  0  0  0
 32 33  1  0  0  0
 33 34  1  0  0  0
 33 35  1  0  0  0
 24 25  1  0  0  0
 25 26  2  0  0  0
 17 18  1  0  0  0
 18 19  2  0  0  0
 19 14  1  0  0  0
 11  1  1  0  0  0
 26 21  1  0  0  0
  9  3  1  0  0  0
 35 30  1  0  0  0
 13 20  1  0  0  0
  6 12  1  0  0  0
M  END
> <minimizedAffinity>
-8.57057

$$$$
CHEMBL184679


 35 39  0  0  0  0  0  0  0  0999 V2000
   39.6378   -0.6158   15.2216 C   0  0  0  0  0  0  0  0  0  0  0  0
   38.5377    0.6830   14.5622 S   0  0  0  0  0  0  0  0  0  0  0  0
   38.4232    1.5598   16.1234 C   0  0  0  0  0  0  0  0  0  0  0  0
   38.3522    2.9584   16.1053 C   0  0  0  0  0  0  0  0  0  0  0  0
   38.1734    3.6727   17.2936 C   0  0  0  0  0  0  0  0  0  0  0  0
   38.0901    5.0628   17.2551 O   0  0  0  0  0  0  0  0  0  0  0  0
   38.0722    2.9847   18.5090 C   0  0  0  0  0  0  0  0  0  0  0  0
   38.1686    1.5910   18.5354 C   0  0  0  0  0  0  0  0  0  0  0  0
   38.3654    0.8703   17.3518 C   0  0  0  0  0  0  0  0  0  0  0  0
   38.5516   -0.5181   17.4418 O   0  0  0  0  0  0  0  0  0  0  0  0
   38.9357   -1.3860   16.3678 C   0  0  0  0  0  0  0  0  0  0  0  0
   37.9462    5.6073   18.0967 H   0  0  0  0  0  0  0  0  0  0  0  0
   41.4868   -4.2747   11.2216 O   0  0  0  0  0  0  0  0  0  0  0  0
   41.0310   -3.3711   12.1788 C   0  0  0  0  0  0  0  0  0  0  0  0
   41.6816   -3.2853   13.4128 C   0  0  0  0  0  0  0  0  0  0  0  0
   41.2345   -2.3844   14.3837 C   0  0  0  0  0  0  0  0  0  0  0  0
   40.1355   -1.5451   14.1285 C   0  0  0  0  0  0  0  0  0  0  0  0
   39.4767   -1.6492   12.8864 C   0  0  0  0  0  0  0  0  0  0  0  0
   39.9256   -2.5520   11.9187 C   0  0  0  0  0  0  0  0  0  0  0  0
   41.0360   -4.3613   10.3181 H   0  0  0  0  0  0  0  0  0  0  0  0
   37.7467   -2.2111   15.9090 C   0  0  0  0  0  0  0  0  0  0  0  0
   37.9208   -3.5695   15.5913 C   0  0  0  0  0  0  0  0  0  0  0  0
   36.8487   -4.3345   15.1252 C   0  0  0  0  0  0  0  0  0  0  0  0
   35.5770   -3.7530   14.9701 C   0  0  0  0  0  0  0  0  0  0  0  0
   35.4004   -2.4036   15.2931 C   0  0  0  0  0  0  0  0  0  0  0  0
   36.4718   -1.6372   15.7589 C   0  0  0  0  0  0  0  0  0  0  0  0
   34.4712   -4.4758   14.5001 O   0  0  0  0  0  0  0  0  0  0  0  0
   33.1762   -4.4449   15.0956 C   0  0  0  0  0  0  0  0  0  0  0  0
   33.1647   -5.3100   16.3558 C   0  0  0  0  0  0  0  0  0  0  0  0
   32.3352   -4.6984   17.4132 N   0  0  0  0  0  0  0  0  0  0  0  0
   31.4294   -3.6628   16.9011 C   0  0  0  0  0  0  0  0  0  0  0  0
   31.1941   -2.6760   18.0369 C   0  0  0  0  0  0  0  0  0  0  0  0
   32.2817   -2.9651   19.0608 C   0  0  0  0  0  0  0  0  0  0  0  0
   31.7202   -3.4602   20.2276 F   0  0  0  0  0  0  0  0  0  0  0  0
   33.1617   -4.0234   18.4160 C   0  0  0  0  0  0  0  0  0  0  0  0
 13 14  1  0  0  0
 14 15  2  0  0  0
 15 16  1  0  0  0
 16 17  2  0  0  0
 17  1  1  0  0  0
  1  2  1  0  0  0
  2  3  1  0  0  0
  3  4  2  0  0  0
  4  5  1  0  0  0
  5  6  1  0  0  0
  5  7  2  0  0  0
  7  8  1  0  0  0
  8  9  2  0  0  0
  9 10  1  0  0  0
 10 11  1  0  0  0
 11 21  1  0  0  0
 21 22  2  0  0  0
 22 23  1  0  0  0
 23 24  2  0  0  0
 24 27  1  0  0  0
 27 28  1  0  0  0
 28 29  1  0  0  0
 29 30  1  0  0  0
 30 31  1  0  0  0
 31 32  1  0  0  0
 32 33  1  0  0  0
 33 34  1  0  0  0
 33 35  1  0  0  0
 24 25  1  0  0  0
 25 26  2  0  0  0
 17 18  1  0  0  0
 18 19  2  0  0  0
 19 14  1  0  0  0
 11  1  1  0  0  0
 26 21  1  0  0  0
  9  3  1  0  0  0
 35 30  1  0  0  0
 13 20  1  0  0  0
  6 12  1  0  0  0
M  END
> <minimizedAffinity>
-8.54640

$$$$
CHEMBL185114


 36 40  0  0  0  0  0  0  0  0999 V2000
   38.0003   -1.0731   17.3142 C   0  0  0  0  0  0  0  0  0  0  0  0
   38.8879    0.1911   16.3488 S   0  0  0  0  0  0  0  0  0  0  0  0
   37.4254    1.1413   15.9533 C   0  0  0  0  0  0  0  0  0  0  0  0
   37.3072    1.7087   14.6797 C   0  0  0  0  0  0  0  0  0  0  0  0
   36.2114    2.5170   14.3655 C   0  0  0  0  0  0  0  0  0  0  0  0
   36.1124    3.0796   13.0969 O   0  0  0  0  0  0  0  0  0  0  0  0
   35.2297    2.7605   15.3340 C   0  0  0  0  0  0  0  0  0  0  0  0
   35.3324    2.1741   16.5980 C   0  0  0  0  0  0  0  0  0  0  0  0
   36.4136    1.3413   16.9067 C   0  0  0  0  0  0  0  0  0  0  0  0
   36.4048    0.6619   18.1317 O   0  0  0  0  0  0  0  0  0  0  0  0
   37.2911   -0.3977   18.5208 C   0  0  0  0  0  0  0  0  0  0  0  0
   35.3214    3.6555   12.8321 H   0  0  0  0  0  0  0  0  0  0  0  0
   34.9941   -4.4778   13.8149 O   0  0  0  0  0  0  0  0  0  0  0  0
   35.7172   -3.6457   14.6656 C   0  0  0  0  0  0  0  0  0  0  0  0
   37.1097   -3.5974   14.5976 C   0  0  0  0  0  0  0  0  0  0  0  0
   37.8244   -2.7645   15.4603 C   0  0  0  0  0  0  0  0  0  0  0  0
   37.1594   -1.9706   16.4132 C   0  0  0  0  0  0  0  0  0  0  0  0
   35.7539   -2.0160   16.4604 C   0  0  0  0  0  0  0  0  0  0  0  0
   35.0444   -2.8519   15.5958 C   0  0  0  0  0  0  0  0  0  0  0  0
   35.4513   -5.0607   13.1246 H   0  0  0  0  0  0  0  0  0  0  0  0
   36.5745   -1.4088   19.4044 C   0  0  0  0  0  0  0  0  0  0  0  0
   35.1798   -1.3580   19.6029 C   0  0  0  0  0  0  0  0  0  0  0  0
   34.5382   -2.3020   20.4085 C   0  0  0  0  0  0  0  0  0  0  0  0
   35.2809   -3.3192   21.0391 C   0  0  0  0  0  0  0  0  0  0  0  0
   36.6662   -3.3667   20.8523 C   0  0  0  0  0  0  0  0  0  0  0  0
   37.3083   -2.4166   20.0548 C   0  0  0  0  0  0  0  0  0  0  0  0
   34.6889   -4.2999   21.8506 O   0  0  0  0  0  0  0  0  0  0  0  0
   33.4149   -4.1932   22.4852 C   0  0  0  0  0  0  0  0  0  0  0  0
   33.5479   -3.4713   23.8287 C   0  0  0  0  0  0  0  0  0  0  0  0
   32.2254   -3.1370   24.3904 N   0  0  0  0  0  0  0  0  0  0  0  0
   31.7406   -1.8404   23.8960 C   0  0  0  0  0  0  0  0  0  0  0  0
   31.0692   -1.1126   25.0556 C   0  0  0  0  0  0  0  0  0  0  0  0
   31.1236   -2.0738   26.2272 C   0  0  0  0  0  0  0  0  0  0  0  0
   29.9153   -2.7788   26.3344 O   0  0  0  0  0  0  0  0  0  0  0  0
   32.2388   -3.0301   25.8537 C   0  0  0  0  0  0  0  0  0  0  0  0
   29.2945   -2.1970   26.8398 H   0  0  0  0  0  0  0  0  0  0  0  0
 13 14  1  0  0  0
 14 15  2  0  0  0
 15 16  1  0  0  0
 16 17  2  0  0  0
 17  1  1  0  0  0
  1  2  1  0  0  0
  2  3  1  0  0  0
  3  4  2  0  0  0
  4  5  1  0  0  0
  5  6  1  0  0  0
  5  7  2  0  0  0
  7  8  1  0  0  0
  8  9  2  0  0  0
  9 10  1  0  0  0
 10 11  1  0  0  0
 11 21  1  0  0  0
 21 22  2  0  0  0
 22 23  1  0  0  0
 23 24  2  0  0  0
 24 27  1  0  0  0
 27 28  1  0  0  0
 28 29  1  0  0  0
 29 30  1  0  0  0
 30 31  1  0  0  0
 31 32  1  0  0  0
 32 33  1  0  0  0
 33 34  1  0  0  0
 33 35  1  0  0  0
 24 25  1  0  0  0
 25 26  2  0  0  0
 17 18  1  0  0  0
 18 19  2  0  0  0
 19 14  1  0  0  0
 11  1  1  0  0  0
 26 21  1  0  0  0
  9  3  1  0  0  0
 35 30  1  0  0  0
 13 20  1  0  0  0
  6 12  1  0  0  0
 34 36  1  0  0  0
M  END
> <minimizedAffinity>
-9.49347

$$$$
CHEMBL185114


 36 40  0  0  0  0  0  0  0  0999 V2000
   37.7830   -1.4682   17.7513 C   0  0  0  0  0  0  0  0  0  0  0  0
   38.7113   -0.2233   16.7992 S   0  0  0  0  0  0  0  0  0  0  0  0
   37.2607    0.6650   16.2469 C   0  0  0  0  0  0  0  0  0  0  0  0
   37.2289    1.1708   14.9427 C   0  0  0  0  0  0  0  0  0  0  0  0
   36.1409    1.9317   14.5066 C   0  0  0  0  0  0  0  0  0  0  0  0
   36.1280    2.4335   13.2090 O   0  0  0  0  0  0  0  0  0  0  0  0
   35.0799    2.1896   15.3834 C   0  0  0  0  0  0  0  0  0  0  0  0
   35.0975    1.6640   16.6778 C   0  0  0  0  0  0  0  0  0  0  0  0
   36.1720    0.8779   17.1084 C   0  0  0  0  0  0  0  0  0  0  0  0
   36.0840    0.2544   18.3597 O   0  0  0  0  0  0  0  0  0  0  0  0
   36.9637   -0.7602   18.8660 C   0  0  0  0  0  0  0  0  0  0  0  0
   35.3457    2.9735   12.8568 H   0  0  0  0  0  0  0  0  0  0  0  0
   35.1466   -5.1908   14.2776 O   0  0  0  0  0  0  0  0  0  0  0  0
   35.7826   -4.2801   15.1173 C   0  0  0  0  0  0  0  0  0  0  0  0
   37.0126   -4.5888   15.6987 C   0  0  0  0  0  0  0  0  0  0  0  0
   37.6375   -3.6707   16.5443 C   0  0  0  0  0  0  0  0  0  0  0  0
   37.0391   -2.4296   16.8311 C   0  0  0  0  0  0  0  0  0  0  0  0
   35.8066   -2.1237   16.2253 C   0  0  0  0  0  0  0  0  0  0  0  0
   35.1856   -3.0464   15.3812 C   0  0  0  0  0  0  0  0  0  0  0  0
   35.5561   -6.0910   14.0605 H   0  0  0  0  0  0  0  0  0  0  0  0
   36.2058   -1.7511   19.7380 C   0  0  0  0  0  0  0  0  0  0  0  0
   36.8785   -2.7183   20.5121 C   0  0  0  0  0  0  0  0  0  0  0  0
   36.1660   -3.6120   21.3154 C   0  0  0  0  0  0  0  0  0  0  0  0
   34.7591   -3.5605   21.3591 C   0  0  0  0  0  0  0  0  0  0  0  0
   34.0879   -2.6087   20.5848 C   0  0  0  0  0  0  0  0  0  0  0  0
   34.8005   -1.7220   19.7743 C   0  0  0  0  0  0  0  0  0  0  0  0
   33.9919   -4.4257   22.1552 O   0  0  0  0  0  0  0  0  0  0  0  0
   32.8177   -4.0626   22.8809 C   0  0  0  0  0  0  0  0  0  0  0  0
   33.1582   -3.0389   23.9671 C   0  0  0  0  0  0  0  0  0  0  0  0
   31.9401   -2.4051   24.5066 N   0  0  0  0  0  0  0  0  0  0  0  0
   32.0828   -0.9444   24.5899 C   0  0  0  0  0  0  0  0  0  0  0  0
   31.4376   -0.4792   25.8908 C   0  0  0  0  0  0  0  0  0  0  0  0
   30.8521   -1.7261   26.5248 C   0  0  0  0  0  0  0  0  0  0  0  0
   29.4886   -1.8361   26.2126 O   0  0  0  0  0  0  0  0  0  0  0  0
   31.6176   -2.8559   25.8651 C   0  0  0  0  0  0  0  0  0  0  0  0
   29.0043   -1.2746   26.8680 H   0  0  0  0  0  0  0  0  0  0  0  0
 13 14  1  0  0  0
 14 15  2  0  0  0
 15 16  1  0  0  0
 16 17  2  0  0  0
 17  1  1  0  0  0
  1  2  1  0  0  0
  2  3  1  0  0  0
  3  4  2  0  0  0
  4  5  1  0  0  0
  5  6  1  0  0  0
  5  7  2  0  0  0
  7  8  1  0  0  0
  8  9  2  0  0  0
  9 10  1  0  0  0
 10 11  1  0  0  0
 11 21  1  0  0  0
 21 22  2  0  0  0
 22 23  1  0  0  0
 23 24  2  0  0  0
 24 27  1  0  0  0
 27 28  1  0  0  0
 28 29  1  0  0  0
 29 30  1  0  0  0
 30 31  1  0  0  0
 31 32  1  0  0  0
 32 33  1  0  0  0
 33 34  1  0  0  0
 33 35  1  0  0  0
 24 25  1  0  0  0
 25 26  2  0  0  0
 17 18  1  0  0  0
 18 19  2  0  0  0
 19 14  1  0  0  0
 11  1  1  0  0  0
 26 21  1  0  0  0
  9  3  1  0  0  0
 35 30  1  0  0  0
 13 20  1  0  0  0
  6 12  1  0  0  0
 34 36  1  0  0  0
M  END
> <minimizedAffinity>
-8.98269

$$$$
CHEMBL185114


 36 40  0  0  0  0  0  0  0  0999 V2000
   37.3841   -3.5163   18.4410 C   0  0  0  0  0  0  0  0  0  0  0  0
   38.5853   -2.8607   17.2388 S   0  0  0  0  0  0  0  0  0  0  0  0
   37.4607   -1.6636   16.5311 C   0  0  0  0  0  0  0  0  0  0  0  0
   37.4890   -1.4376   15.1505 C   0  0  0  0  0  0  0  0  0  0  0  0
   36.6744   -0.4566   14.5786 C   0  0  0  0  0  0  0  0  0  0  0  0
   36.7197   -0.2393   13.2052 O   0  0  0  0  0  0  0  0  0  0  0  0
   35.8287    0.3043   15.3952 C   0  0  0  0  0  0  0  0  0  0  0  0
   35.7799    0.0629   16.7705 C   0  0  0  0  0  0  0  0  0  0  0  0
   36.5731   -0.9379   17.3425 C   0  0  0  0  0  0  0  0  0  0  0  0
   36.3895   -1.2428   18.6973 O   0  0  0  0  0  0  0  0  0  0  0  0
   36.9312   -2.3749   19.3934 C   0  0  0  0  0  0  0  0  0  0  0  0
   36.1286    0.4519   12.7576 H   0  0  0  0  0  0  0  0  0  0  0  0
   33.4267   -6.7268   15.8132 O   0  0  0  0  0  0  0  0  0  0  0  0
   34.3843   -5.9399   16.4477 C   0  0  0  0  0  0  0  0  0  0  0  0
   35.6129   -6.4823   16.8251 C   0  0  0  0  0  0  0  0  0  0  0  0
   36.5625   -5.6855   17.4669 C   0  0  0  0  0  0  0  0  0  0  0  0
   36.2971   -4.3328   17.7509 C   0  0  0  0  0  0  0  0  0  0  0  0
   35.0609   -3.7937   17.3502 C   0  0  0  0  0  0  0  0  0  0  0  0
   34.1143   -4.5959   16.7097 C   0  0  0  0  0  0  0  0  0  0  0  0
   33.5939   -7.7031   15.6026 H   0  0  0  0  0  0  0  0  0  0  0  0
   35.9665   -2.8685   20.4622 C   0  0  0  0  0  0  0  0  0  0  0  0
   36.3533   -3.8287   21.4191 C   0  0  0  0  0  0  0  0  0  0  0  0
   35.4571   -4.2610   22.3997 C   0  0  0  0  0  0  0  0  0  0  0  0
   34.1478   -3.7435   22.4426 C   0  0  0  0  0  0  0  0  0  0  0  0
   33.7576   -2.7980   21.4887 C   0  0  0  0  0  0  0  0  0  0  0  0
   34.6510   -2.3736   20.5025 C   0  0  0  0  0  0  0  0  0  0  0  0
   33.2085   -4.1330   23.4105 O   0  0  0  0  0  0  0  0  0  0  0  0
   32.3953   -3.2481   24.1804 C   0  0  0  0  0  0  0  0  0  0  0  0
   32.8247   -3.2727   25.6497 C   0  0  0  0  0  0  0  0  0  0  0  0
   33.3164   -1.9521   26.0863 N   0  0  0  0  0  0  0  0  0  0  0  0
   33.0441   -1.7186   27.5118 C   0  0  0  0  0  0  0  0  0  0  0  0
   32.6157   -0.2649   27.6800 C   0  0  0  0  0  0  0  0  0  0  0  0
   32.7193    0.3536   26.2993 C   0  0  0  0  0  0  0  0  0  0  0  0
   33.9448    1.0218   26.1565 O   0  0  0  0  0  0  0  0  0  0  0  0
   32.6804   -0.8418   25.3682 C   0  0  0  0  0  0  0  0  0  0  0  0
   33.8219    1.9211   26.5508 H   0  0  0  0  0  0  0  0  0  0  0  0
 13 14  1  0  0  0
 14 15  2  0  0  0
 15 16  1  0  0  0
 16 17  2  0  0  0
 17  1  1  0  0  0
  1  2  1  0  0  0
  2  3  1  0  0  0
  3  4  2  0  0  0
  4  5  1  0  0  0
  5  6  1  0  0  0
  5  7  2  0  0  0
  7  8  1  0  0  0
  8  9  2  0  0  0
  9 10  1  0  0  0
 10 11  1  0  0  0
 11 21  1  0  0  0
 21 22  2  0  0  0
 22 23  1  0  0  0
 23 24  2  0  0  0
 24 27  1  0  0  0
 27 28  1  0  0  0
 28 29  1  0  0  0
 29 30  1  0  0  0
 30 31  1  0  0  0
 31 32  1  0  0  0
 32 33  1  0  0  0
 33 34  1  0  0  0
 33 35  1  0  0  0
 24 25  1  0  0  0
 25 26  2  0  0  0
 17 18  1  0  0  0
 18 19  2  0  0  0
 19 14  1  0  0  0
 11  1  1  0  0  0
 26 21  1  0  0  0
  9  3  1  0  0  0
 35 30  1  0  0  0
 13 20  1  0  0  0
  6 12  1  0  0  0
 34 36  1  0  0  0
M  END
> <minimizedAffinity>
-8.70491

$$$$
CHEMBL185114


 36 40  0  0  0  0  0  0  0  0999 V2000
   37.6115    0.7371   18.1825 C   0  0  0  0  0  0  0  0  0  0  0  0
   37.9756    2.5182   18.0679 S   0  0  0  0  0  0  0  0  0  0  0  0
   36.8054    2.8327   16.7525 C   0  0  0  0  0  0  0  0  0  0  0  0
   37.1500    3.7311   15.7365 C   0  0  0  0  0  0  0  0  0  0  0  0
   36.2290    4.0528   14.7359 C   0  0  0  0  0  0  0  0  0  0  0  0
   36.5847    4.9534   13.7369 O   0  0  0  0  0  0  0  0  0  0  0  0
   34.9544    3.4732   14.7550 C   0  0  0  0  0  0  0  0  0  0  0  0
   34.6170    2.5563   15.7538 C   0  0  0  0  0  0  0  0  0  0  0  0
   35.5464    2.2102   16.7409 C   0  0  0  0  0  0  0  0  0  0  0  0
   35.2186    1.1843   17.6366 O   0  0  0  0  0  0  0  0  0  0  0  0
   36.1153    0.5387   18.5524 C   0  0  0  0  0  0  0  0  0  0  0  0
   35.9461    5.1937   12.9872 H   0  0  0  0  0  0  0  0  0  0  0  0
   39.7927   -2.0255   13.6564 O   0  0  0  0  0  0  0  0  0  0  0  0
   39.2555   -1.3531   14.7511 C   0  0  0  0  0  0  0  0  0  0  0  0
   40.0889   -0.7497   15.6931 C   0  0  0  0  0  0  0  0  0  0  0  0
   39.5392   -0.0844   16.7902 C   0  0  0  0  0  0  0  0  0  0  0  0
   38.1449   -0.0177   16.9699 C   0  0  0  0  0  0  0  0  0  0  0  0
   37.3151   -0.6160   16.0040 C   0  0  0  0  0  0  0  0  0  0  0  0
   37.8707   -1.2812   14.9092 C   0  0  0  0  0  0  0  0  0  0  0  0
   40.7924   -2.0898   13.5089 H   0  0  0  0  0  0  0  0  0  0  0  0
   35.7558   -0.9308   18.7202 C   0  0  0  0  0  0  0  0  0  0  0  0
   34.6292   -1.4922   18.0857 C   0  0  0  0  0  0  0  0  0  0  0  0
   34.3219   -2.8460   18.2424 C   0  0  0  0  0  0  0  0  0  0  0  0
   35.1355   -3.6704   19.0438 C   0  0  0  0  0  0  0  0  0  0  0  0
   36.2485   -3.1145   19.6828 C   0  0  0  0  0  0  0  0  0  0  0  0
   36.5494   -1.7587   19.5336 C   0  0  0  0  0  0  0  0  0  0  0  0
   34.8814   -5.0386   19.2290 O   0  0  0  0  0  0  0  0  0  0  0  0
   34.3277   -5.9192   18.2516 C   0  0  0  0  0  0  0  0  0  0  0  0
   35.4187   -6.4059   17.2943 C   0  0  0  0  0  0  0  0  0  0  0  0
   35.1741   -5.9331   15.9184 N   0  0  0  0  0  0  0  0  0  0  0  0
   36.0166   -4.7749   15.5875 C   0  0  0  0  0  0  0  0  0  0  0  0
   35.1755   -3.7933   14.7788 C   0  0  0  0  0  0  0  0  0  0  0  0
   33.8283   -4.4649   14.5950 C   0  0  0  0  0  0  0  0  0  0  0  0
   33.7719   -5.1088   13.3497 O   0  0  0  0  0  0  0  0  0  0  0  0
   33.7894   -5.4977   15.7038 C   0  0  0  0  0  0  0  0  0  0  0  0
   33.5186   -4.4182   12.6877 H   0  0  0  0  0  0  0  0  0  0  0  0
 13 14  1  0  0  0
 14 15  2  0  0  0
 15 16  1  0  0  0
 16 17  2  0  0  0
 17  1  1  0  0  0
  1  2  1  0  0  0
  2  3  1  0  0  0
  3  4  2  0  0  0
  4  5  1  0  0  0
  5  6  1  0  0  0
  5  7  2  0  0  0
  7  8  1  0  0  0
  8  9  2  0  0  0
  9 10  1  0  0  0
 10 11  1  0  0  0
 11 21  1  0  0  0
 21 22  2  0  0  0
 22 23  1  0  0  0
 23 24  2  0  0  0
 24 27  1  0  0  0
 27 28  1  0  0  0
 28 29  1  0  0  0
 29 30  1  0  0  0
 30 31  1  0  0  0
 31 32  1  0  0  0
 32 33  1  0  0  0
 33 34  1  0  0  0
 33 35  1  0  0  0
 24 25  1  0  0  0
 25 26  2  0  0  0
 17 18  1  0  0  0
 18 19  2  0  0  0
 19 14  1  0  0  0
 11  1  1  0  0  0
 26 21  1  0  0  0
  9  3  1  0  0  0
 35 30  1  0  0  0
 13 20  1  0  0  0
  6 12  1  0  0  0
 34 36  1  0  0  0
M  END
> <minimizedAffinity>
-8.59513

$$$$
CHEMBL185114


 36 40  0  0  0  0  0  0  0  0999 V2000
   38.0662   -0.1399   17.6139 C   0  0  0  0  0  0  0  0  0  0  0  0
   38.6883    1.4538   16.9888 S   0  0  0  0  0  0  0  0  0  0  0  0
   37.1463    1.9330   16.2199 C   0  0  0  0  0  0  0  0  0  0  0  0
   37.1779    2.5924   14.9862 C   0  0  0  0  0  0  0  0  0  0  0  0
   35.9943    3.0442   14.3963 C   0  0  0  0  0  0  0  0  0  0  0  0
   36.0436    3.7045   13.1728 O   0  0  0  0  0  0  0  0  0  0  0  0
   34.7722    2.8364   15.0478 C   0  0  0  0  0  0  0  0  0  0  0  0
   34.7357    2.1555   16.2673 C   0  0  0  0  0  0  0  0  0  0  0  0
   35.9158    1.6767   16.8469 C   0  0  0  0  0  0  0  0  0  0  0  0
   35.8204    0.8781   17.9937 O   0  0  0  0  0  0  0  0  0  0  0  0
   36.8809    0.1141   18.5864 C   0  0  0  0  0  0  0  0  0  0  0  0
   35.2016    4.0283   12.7103 H   0  0  0  0  0  0  0  0  0  0  0  0
   37.4359   -3.9021   13.3333 O   0  0  0  0  0  0  0  0  0  0  0  0
   37.5823   -2.9836   14.3696 C   0  0  0  0  0  0  0  0  0  0  0  0
   38.8067   -2.8379   15.0221 C   0  0  0  0  0  0  0  0  0  0  0  0
   38.9398   -1.9188   16.0643 C   0  0  0  0  0  0  0  0  0  0  0  0
   37.8475   -1.1342   16.4790 C   0  0  0  0  0  0  0  0  0  0  0  0
   36.6227   -1.2789   15.8019 C   0  0  0  0  0  0  0  0  0  0  0  0
   36.4951   -2.2007   14.7609 C   0  0  0  0  0  0  0  0  0  0  0  0
   38.2064   -4.4800   13.0209 H   0  0  0  0  0  0  0  0  0  0  0  0
   36.3483   -1.1772   19.1911 C   0  0  0  0  0  0  0  0  0  0  0  0
   34.9687   -1.4655   19.2181 C   0  0  0  0  0  0  0  0  0  0  0  0
   34.4996   -2.6615   19.7672 C   0  0  0  0  0  0  0  0  0  0  0  0
   35.4034   -3.5972   20.3073 C   0  0  0  0  0  0  0  0  0  0  0  0
   36.7720   -3.3099   20.2911 C   0  0  0  0  0  0  0  0  0  0  0  0
   37.2395   -2.1096   19.7509 C   0  0  0  0  0  0  0  0  0  0  0  0
   34.9905   -4.8188   20.8623 O   0  0  0  0  0  0  0  0  0  0  0  0
   35.4710   -6.1076   20.4812 C   0  0  0  0  0  0  0  0  0  0  0  0
   34.4735   -6.7919   19.5430 C   0  0  0  0  0  0  0  0  0  0  0  0
   34.8846   -6.6560   18.1327 N   0  0  0  0  0  0  0  0  0  0  0  0
   36.3198   -6.3607   18.0145 C   0  0  0  0  0  0  0  0  0  0  0  0
   36.5017   -5.3333   16.9026 C   0  0  0  0  0  0  0  0  0  0  0  0
   35.1160   -5.0980   16.3334 C   0  0  0  0  0  0  0  0  0  0  0  0
   34.9188   -5.8884   15.1910 O   0  0  0  0  0  0  0  0  0  0  0  0
   34.1910   -5.5643   17.4401 C   0  0  0  0  0  0  0  0  0  0  0  0
   35.3153   -5.3905   14.4332 H   0  0  0  0  0  0  0  0  0  0  0  0
 13 14  1  0  0  0
 14 15  2  0  0  0
 15 16  1  0  0  0
 16 17  2  0  0  0
 17  1  1  0  0  0
  1  2  1  0  0  0
  2  3  1  0  0  0
  3  4  2  0  0  0
  4  5  1  0  0  0
  5  6  1  0  0  0
  5  7  2  0  0  0
  7  8  1  0  0  0
  8  9  2  0  0  0
  9 10  1  0  0  0
 10 11  1  0  0  0
 11 21  1  0  0  0
 21 22  2  0  0  0
 22 23  1  0  0  0
 23 24  2  0  0  0
 24 27  1  0  0  0
 27 28  1  0  0  0
 28 29  1  0  0  0
 29 30  1  0  0  0
 30 31  1  0  0  0
 31 32  1  0  0  0
 32 33  1  0  0  0
 33 34  1  0  0  0
 33 35  1  0  0  0
 24 25  1  0  0  0
 25 26  2  0  0  0
 17 18  1  0  0  0
 18 19  2  0  0  0
 19 14  1  0  0  0
 11  1  1  0  0  0
 26 21  1  0  0  0
  9  3  1  0  0  0
 35 30  1  0  0  0
 13 20  1  0  0  0
  6 12  1  0  0  0
 34 36  1  0  0  0
M  END
> <minimizedAffinity>
-8.55276

$$$$
CHEMBL185114


 36 40  0  0  0  0  0  0  0  0999 V2000
   33.6492   -4.7708   21.1156 C   0  0  0  0  0  0  0  0  0  0  0  0
   34.9000   -5.6886   20.1611 S   0  0  0  0  0  0  0  0  0  0  0  0
   35.8104   -4.2342   19.6569 C   0  0  0  0  0  0  0  0  0  0  0  0
   36.3367   -4.1767   18.3617 C   0  0  0  0  0  0  0  0  0  0  0  0
   37.1145   -3.0863   17.9631 C   0  0  0  0  0  0  0  0  0  0  0  0
   37.6365   -3.0478   16.6741 O   0  0  0  0  0  0  0  0  0  0  0  0
   37.3687   -2.0487   18.8685 C   0  0  0  0  0  0  0  0  0  0  0  0
   36.8228   -2.0916   20.1540 C   0  0  0  0  0  0  0  0  0  0  0  0
   36.0201   -3.1681   20.5470 C   0  0  0  0  0  0  0  0  0  0  0  0
   35.3780   -3.1034   21.7903 O   0  0  0  0  0  0  0  0  0  0  0  0
   34.3474   -3.9848   22.2601 C   0  0  0  0  0  0  0  0  0  0  0  0
   38.1892   -2.2628   16.3487 H   0  0  0  0  0  0  0  0  0  0  0  0
   29.9642   -1.9466   17.7512 O   0  0  0  0  0  0  0  0  0  0  0  0
   30.8647   -2.6332   18.5615 C   0  0  0  0  0  0  0  0  0  0  0  0
   30.4200   -3.3340   19.6827 C   0  0  0  0  0  0  0  0  0  0  0  0
   31.3329   -4.0129   20.4916 C   0  0  0  0  0  0  0  0  0  0  0  0
   32.7093   -3.9962   20.1985 C   0  0  0  0  0  0  0  0  0  0  0  0
   33.1429   -3.2995   19.0557 C   0  0  0  0  0  0  0  0  0  0  0  0
   32.2254   -2.6212   18.2508 C   0  0  0  0  0  0  0  0  0  0  0  0
   28.9704   -1.9412   17.9449 H   0  0  0  0  0  0  0  0  0  0  0  0
   33.3502   -3.2379   23.1344 C   0  0  0  0  0  0  0  0  0  0  0  0
   32.7594   -2.0293   22.7131 C   0  0  0  0  0  0  0  0  0  0  0  0
   31.8373   -1.3641   23.5249 C   0  0  0  0  0  0  0  0  0  0  0  0
   31.4875   -1.8930   24.7826 C   0  0  0  0  0  0  0  0  0  0  0  0
   32.0792   -3.0867   25.2079 C   0  0  0  0  0  0  0  0  0  0  0  0
   33.0085   -3.7461   24.4001 C   0  0  0  0  0  0  0  0  0  0  0  0
   30.5600   -1.2739   25.6354 O   0  0  0  0  0  0  0  0  0  0  0  0
   30.6437   -1.2295   27.0596 C   0  0  0  0  0  0  0  0  0  0  0  0
   30.7147    0.2210   27.5440 C   0  0  0  0  0  0  0  0  0  0  0  0
   32.1103    0.6425   27.7702 N   0  0  0  0  0  0  0  0  0  0  0  0
   32.6341    1.4099   26.6312 C   0  0  0  0  0  0  0  0  0  0  0  0
   34.0787    0.9821   26.3964 C   0  0  0  0  0  0  0  0  0  0  0  0
   34.3922   -0.0165   27.4937 C   0  0  0  0  0  0  0  0  0  0  0  0
   35.0465    0.6208   28.5588 O   0  0  0  0  0  0  0  0  0  0  0  0
   33.0257   -0.4905   27.9470 C   0  0  0  0  0  0  0  0  0  0  0  0
   36.0056    0.6577   28.3175 H   0  0  0  0  0  0  0  0  0  0  0  0
 13 14  1  0  0  0
 14 15  2  0  0  0
 15 16  1  0  0  0
 16 17  2  0  0  0
 17  1  1  0  0  0
  1  2  1  0  0  0
  2  3  1  0  0  0
  3  4  2  0  0  0
  4  5  1  0  0  0
  5  6  1  0  0  0
  5  7  2  0  0  0
  7  8  1  0  0  0
  8  9  2  0  0  0
  9 10  1  0  0  0
 10 11  1  0  0  0
 11 21  1  0  0  0
 21 22  2  0  0  0
 22 23  1  0  0  0
 23 24  2  0  0  0
 24 27  1  0  0  0
 27 28  1  0  0  0
 28 29  1  0  0  0
 29 30  1  0  0  0
 30 31  1  0  0  0
 31 32  1  0  0  0
 32 33  1  0  0  0
 33 34  1  0  0  0
 33 35  1  0  0  0
 24 25  1  0  0  0
 25 26  2  0  0  0
 17 18  1  0  0  0
 18 19  2  0  0  0
 19 14  1  0  0  0
 11  1  1  0  0  0
 26 21  1  0  0  0
  9  3  1  0  0  0
 35 30  1  0  0  0
 13 20  1  0  0  0
  6 12  1  0  0  0
 34 36  1  0  0  0
M  END
> <minimizedAffinity>
-8.47896

$$$$
CHEMBL185114


 36 40  0  0  0  0  0  0  0  0999 V2000
   37.3587    0.9275   17.9151 C   0  0  0  0  0  0  0  0  0  0  0  0
   37.8950    2.6683   17.9232 S   0  0  0  0  0  0  0  0  0  0  0  0
   36.8618    3.1567   16.5475 C   0  0  0  0  0  0  0  0  0  0  0  0
   37.3643    4.0643   15.6086 C   0  0  0  0  0  0  0  0  0  0  0  0
   36.5554    4.5208   14.5645 C   0  0  0  0  0  0  0  0  0  0  0  0
   37.0679    5.4288   13.6433 O   0  0  0  0  0  0  0  0  0  0  0  0
   35.2344    4.0673   14.4622 C   0  0  0  0  0  0  0  0  0  0  0  0
   34.7386    3.1413   15.3835 C   0  0  0  0  0  0  0  0  0  0  0  0
   35.5546    2.6605   16.4134 C   0  0  0  0  0  0  0  0  0  0  0  0
   35.0659    1.6301   17.2269 O   0  0  0  0  0  0  0  0  0  0  0  0
   35.8269    0.8580   18.1673 C   0  0  0  0  0  0  0  0  0  0  0  0
   36.5128    5.7651   12.8646 H   0  0  0  0  0  0  0  0  0  0  0  0
   39.6001   -1.8875   13.4512 O   0  0  0  0  0  0  0  0  0  0  0  0
   39.0513   -1.1987   14.5297 C   0  0  0  0  0  0  0  0  0  0  0  0
   39.7158   -1.1522   15.7554 C   0  0  0  0  0  0  0  0  0  0  0  0
   39.1525   -0.4644   16.8317 C   0  0  0  0  0  0  0  0  0  0  0  0
   37.9092    0.1826   16.7041 C   0  0  0  0  0  0  0  0  0  0  0  0
   37.2572    0.1422   15.4580 C   0  0  0  0  0  0  0  0  0  0  0  0
   37.8248   -0.5483   14.3853 C   0  0  0  0  0  0  0  0  0  0  0  0
   40.4910   -2.3637   13.5210 H   0  0  0  0  0  0  0  0  0  0  0  0
   35.3203   -0.5760   18.2295 C   0  0  0  0  0  0  0  0  0  0  0  0
   35.8203   -1.4952   19.1740 C   0  0  0  0  0  0  0  0  0  0  0  0
   35.3345   -2.8042   19.2232 C   0  0  0  0  0  0  0  0  0  0  0  0
   34.3370   -3.2255   18.3225 C   0  0  0  0  0  0  0  0  0  0  0  0
   33.8457   -2.3189   17.3775 C   0  0  0  0  0  0  0  0  0  0  0  0
   34.3389   -1.0133   17.3225 C   0  0  0  0  0  0  0  0  0  0  0  0
   33.8044   -4.5244   18.3322 O   0  0  0  0  0  0  0  0  0  0  0  0
   34.5370   -5.7231   18.0801 C   0  0  0  0  0  0  0  0  0  0  0  0
   34.3566   -6.1613   16.6243 C   0  0  0  0  0  0  0  0  0  0  0  0
   35.4579   -5.6674   15.7759 N   0  0  0  0  0  0  0  0  0  0  0  0
   36.6150   -5.2508   16.5811 C   0  0  0  0  0  0  0  0  0  0  0  0
   37.1882   -3.9798   15.9640 C   0  0  0  0  0  0  0  0  0  0  0  0
   36.3557   -3.7165   14.7242 C   0  0  0  0  0  0  0  0  0  0  0  0
   37.0008   -4.2270   13.5877 O   0  0  0  0  0  0  0  0  0  0  0  0
   35.0803   -4.4955   14.9779 C   0  0  0  0  0  0  0  0  0  0  0  0
   37.6494   -3.5373   13.2994 H   0  0  0  0  0  0  0  0  0  0  0  0
 13 14  1  0  0  0
 14 15  2  0  0  0
 15 16  1  0  0  0
 16 17  2  0  0  0
 17  1  1  0  0  0
  1  2  1  0  0  0
  2  3  1  0  0  0
  3  4  2  0  0  0
  4  5  1  0  0  0
  5  6  1  0  0  0
  5  7  2  0  0  0
  7  8  1  0  0  0
  8  9  2  0  0  0
  9 10  1  0  0  0
 10 11  1  0  0  0
 11 21  1  0  0  0
 21 22  2  0  0  0
 22 23  1  0  0  0
 23 24  2  0  0  0
 24 27  1  0  0  0
 27 28  1  0  0  0
 28 29  1  0  0  0
 29 30  1  0  0  0
 30 31  1  0  0  0
 31 32  1  0  0  0
 32 33  1  0  0  0
 33 34  1  0  0  0
 33 35  1  0  0  0
 24 25  1  0  0  0
 25 26  2  0  0  0
 17 18  1  0  0  0
 18 19  2  0  0  0
 19 14  1  0  0  0
 11  1  1  0  0  0
 26 21  1  0  0  0
  9  3  1  0  0  0
 35 30  1  0  0  0
 13 20  1  0  0  0
  6 12  1  0  0  0
 34 36  1  0  0  0
M  END
> <minimizedAffinity>
-8.45190

$$$$
CHEMBL185114


 36 40  0  0  0  0  0  0  0  0999 V2000
   36.4186   -0.7317   15.2271 C   0  0  0  0  0  0  0  0  0  0  0  0
   37.2235   -0.3375   13.6413 S   0  0  0  0  0  0  0  0  0  0  0  0
   38.8128   -1.0179   14.0992 C   0  0  0  0  0  0  0  0  0  0  0  0
   39.9776   -0.3573   13.6931 C   0  0  0  0  0  0  0  0  0  0  0  0
   41.2332   -0.9035   13.9724 C   0  0  0  0  0  0  0  0  0  0  0  0
   42.3815   -0.2379   13.5553 O   0  0  0  0  0  0  0  0  0  0  0  0
   41.3221   -2.1201   14.6602 C   0  0  0  0  0  0  0  0  0  0  0  0
   40.1612   -2.7685   15.0892 C   0  0  0  0  0  0  0  0  0  0  0  0
   38.9035   -2.2101   14.8363 C   0  0  0  0  0  0  0  0  0  0  0  0
   37.7766   -2.8169   15.4057 O   0  0  0  0  0  0  0  0  0  0  0  0
   36.4512   -2.2686   15.4547 C   0  0  0  0  0  0  0  0  0  0  0  0
   43.3069   -0.5984   13.7580 H   0  0  0  0  0  0  0  0  0  0  0  0
   38.3211    2.7746   19.3455 O   0  0  0  0  0  0  0  0  0  0  0  0
   37.8659    1.9176   18.3468 C   0  0  0  0  0  0  0  0  0  0  0  0
   37.0731    2.3988   17.3047 C   0  0  0  0  0  0  0  0  0  0  0  0
   36.6167    1.5290   16.3129 C   0  0  0  0  0  0  0  0  0  0  0  0
   36.9380    0.1593   16.3500 C   0  0  0  0  0  0  0  0  0  0  0  0
   37.7520   -0.3102   17.3971 C   0  0  0  0  0  0  0  0  0  0  0  0
   38.2046    0.5643   18.3871 C   0  0  0  0  0  0  0  0  0  0  0  0
   38.0991    3.7625   19.3417 H   0  0  0  0  0  0  0  0  0  0  0  0
   35.7427   -2.6734   16.7396 C   0  0  0  0  0  0  0  0  0  0  0  0
   36.3333   -3.5638   17.6591 C   0  0  0  0  0  0  0  0  0  0  0  0
   35.6723   -3.9147   18.8388 C   0  0  0  0  0  0  0  0  0  0  0  0
   34.3992   -3.3838   19.1240 C   0  0  0  0  0  0  0  0  0  0  0  0
   33.8061   -2.5077   18.2092 C   0  0  0  0  0  0  0  0  0  0  0  0
   34.4632   -2.1652   17.0252 C   0  0  0  0  0  0  0  0  0  0  0  0
   33.6931   -3.6924   20.2975 O   0  0  0  0  0  0  0  0  0  0  0  0
   33.8610   -3.0484   21.5601 C   0  0  0  0  0  0  0  0  0  0  0  0
   33.5717   -4.0281   22.7004 C   0  0  0  0  0  0  0  0  0  0  0  0
   32.5223   -3.5100   23.5985 N   0  0  0  0  0  0  0  0  0  0  0  0
   32.0942   -2.1595   23.2065 C   0  0  0  0  0  0  0  0  0  0  0  0
   31.8863   -1.3415   24.4763 C   0  0  0  0  0  0  0  0  0  0  0  0
   32.1447   -2.2975   25.6247 C   0  0  0  0  0  0  0  0  0  0  0  0
   30.9346   -2.8257   26.0995 O   0  0  0  0  0  0  0  0  0  0  0  0
   32.9681   -3.4019   24.9922 C   0  0  0  0  0  0  0  0  0  0  0  0
   30.5681   -2.1610   26.7345 H   0  0  0  0  0  0  0  0  0  0  0  0
 13 14  1  0  0  0
 14 15  2  0  0  0
 15 16  1  0  0  0
 16 17  2  0  0  0
 17  1  1  0  0  0
  1  2  1  0  0  0
  2  3  1  0  0  0
  3  4  2  0  0  0
  4  5  1  0  0  0
  5  6  1  0  0  0
  5  7  2  0  0  0
  7  8  1  0  0  0
  8  9  2  0  0  0
  9 10  1  0  0  0
 10 11  1  0  0  0
 11 21  1  0  0  0
 21 22  2  0  0  0
 22 23  1  0  0  0
 23 24  2  0  0  0
 24 27  1  0  0  0
 27 28  1  0  0  0
 28 29  1  0  0  0
 29 30  1  0  0  0
 30 31  1  0  0  0
 31 32  1  0  0  0
 32 33  1  0  0  0
 33 34  1  0  0  0
 33 35  1  0  0  0
 24 25  1  0  0  0
 25 26  2  0  0  0
 17 18  1  0  0  0
 18 19  2  0  0  0
 19 14  1  0  0  0
 11  1  1  0  0  0
 26 21  1  0  0  0
  9  3  1  0  0  0
 35 30  1  0  0  0
 13 20  1  0  0  0
  6 12  1  0  0  0
 34 36  1  0  0  0
M  END
> <minimizedAffinity>
-8.42190

$$$$
CHEMBL185114


 36 40  0  0  0  0  0  0  0  0999 V2000
   36.9465   -4.4643   19.9603 C   0  0  0  0  0  0  0  0  0  0  0  0
   38.2235   -4.2289   18.6829 S   0  0  0  0  0  0  0  0  0  0  0  0
   37.0722   -3.7697   17.3936 C   0  0  0  0  0  0  0  0  0  0  0  0
   37.2944   -4.2261   16.0897 C   0  0  0  0  0  0  0  0  0  0  0  0
   36.4541   -3.8242   15.0479 C   0  0  0  0  0  0  0  0  0  0  0  0
   36.6929   -4.2812   13.7557 O   0  0  0  0  0  0  0  0  0  0  0  0
   35.3867   -2.9576   15.3138 C   0  0  0  0  0  0  0  0  0  0  0  0
   35.1475   -2.5211   16.6193 C   0  0  0  0  0  0  0  0  0  0  0  0
   35.9697   -2.9443   17.6694 C   0  0  0  0  0  0  0  0  0  0  0  0
   35.6114   -2.5993   18.9789 O   0  0  0  0  0  0  0  0  0  0  0  0
   36.1864   -3.1273   20.1832 C   0  0  0  0  0  0  0  0  0  0  0  0
   36.0914   -4.0227   12.9819 H   0  0  0  0  0  0  0  0  0  0  0  0
   33.9788   -9.2659   18.9547 O   0  0  0  0  0  0  0  0  0  0  0  0
   34.6944   -8.0955   19.1931 C   0  0  0  0  0  0  0  0  0  0  0  0
   36.0102   -8.1487   19.6535 C   0  0  0  0  0  0  0  0  0  0  0  0
   36.7155   -6.9686   19.8956 C   0  0  0  0  0  0  0  0  0  0  0  0
   36.1143   -5.7128   19.6899 C   0  0  0  0  0  0  0  0  0  0  0  0
   34.7924   -5.6730   19.2097 C   0  0  0  0  0  0  0  0  0  0  0  0
   34.0914   -6.8567   18.9704 C   0  0  0  0  0  0  0  0  0  0  0  0
   34.3892  -10.1802   19.0996 H   0  0  0  0  0  0  0  0  0  0  0  0
   35.1391   -3.2391   21.2820 C   0  0  0  0  0  0  0  0  0  0  0  0
   35.4275   -3.8555   22.5165 C   0  0  0  0  0  0  0  0  0  0  0  0
   34.4564   -3.9383   23.5175 C   0  0  0  0  0  0  0  0  0  0  0  0
   33.1692   -3.4082   23.3033 C   0  0  0  0  0  0  0  0  0  0  0  0
   32.8766   -2.8047   22.0760 C   0  0  0  0  0  0  0  0  0  0  0  0
   33.8450   -2.7311   21.0721 C   0  0  0  0  0  0  0  0  0  0  0  0
   32.1577   -3.4536   24.2758 O   0  0  0  0  0  0  0  0  0  0  0  0
   32.3410   -3.2341   25.6742 C   0  0  0  0  0  0  0  0  0  0  0  0
   31.5980   -1.9709   26.1170 C   0  0  0  0  0  0  0  0  0  0  0  0
   30.1496   -2.0837   25.8601 N   0  0  0  0  0  0  0  0  0  0  0  0
   29.5396   -0.7680   25.6201 C   0  0  0  0  0  0  0  0  0  0  0  0
   28.1833   -0.7410   26.3163 C   0  0  0  0  0  0  0  0  0  0  0  0
   28.0024   -2.1239   26.9117 C   0  0  0  0  0  0  0  0  0  0  0  0
   27.2347   -2.9261   26.0539 O   0  0  0  0  0  0  0  0  0  0  0  0
   29.4151   -2.6680   26.9879 C   0  0  0  0  0  0  0  0  0  0  0  0
   26.2869   -2.7179   26.2480 H   0  0  0  0  0  0  0  0  0  0  0  0
 13 14  1  0  0  0
 14 15  2  0  0  0
 15 16  1  0  0  0
 16 17  2  0  0  0
 17  1  1  0  0  0
  1  2  1  0  0  0
  2  3  1  0  0  0
  3  4  2  0  0  0
  4  5  1  0  0  0
  5  6  1  0  0  0
  5  7  2  0  0  0
  7  8  1  0  0  0
  8  9  2  0  0  0
  9 10  1  0  0  0
 10 11  1  0  0  0
 11 21  1  0  0  0
 21 22  2  0  0  0
 22 23  1  0  0  0
 23 24  2  0  0  0
 24 27  1  0  0  0
 27 28  1  0  0  0
 28 29  1  0  0  0
 29 30  1  0  0  0
 30 31  1  0  0  0
 31 32  1  0  0  0
 32 33  1  0  0  0
 33 34  1  0  0  0
 33 35  1  0  0  0
 24 25  1  0  0  0
 25 26  2  0  0  0
 17 18  1  0  0  0
 18 19  2  0  0  0
 19 14  1  0  0  0
 11  1  1  0  0  0
 26 21  1  0  0  0
  9  3  1  0  0  0
 35 30  1  0  0  0
 13 20  1  0  0  0
  6 12  1  0  0  0
 34 36  1  0  0  0
M  END
> <minimizedAffinity>
-8.40991

$$$$
CHEMBL185114


 36 40  0  0  0  0  0  0  0  0999 V2000
   37.0634   -2.3603   17.6480 C   0  0  0  0  0  0  0  0  0  0  0  0
   37.9649   -1.4276   16.3606 S   0  0  0  0  0  0  0  0  0  0  0  0
   36.7821   -0.0995   16.0971 C   0  0  0  0  0  0  0  0  0  0  0  0
   36.8001    0.5587   14.8600 C   0  0  0  0  0  0  0  0  0  0  0  0
   35.9351    1.6329   14.6117 C   0  0  0  0  0  0  0  0  0  0  0  0
   35.9473    2.2887   13.3808 O   0  0  0  0  0  0  0  0  0  0  0  0
   35.0521    2.0544   15.6077 C   0  0  0  0  0  0  0  0  0  0  0  0
   35.0008    1.3800   16.8316 C   0  0  0  0  0  0  0  0  0  0  0  0
   35.8545    0.2985   17.0816 C   0  0  0  0  0  0  0  0  0  0  0  0
   35.6912   -0.4024   18.2781 O   0  0  0  0  0  0  0  0  0  0  0  0
   36.5591   -1.4215   18.7645 C   0  0  0  0  0  0  0  0  0  0  0  0
   36.5981    2.0246   12.6458 H   0  0  0  0  0  0  0  0  0  0  0  0
   33.1327   -6.0572   15.7023 O   0  0  0  0  0  0  0  0  0  0  0  0
   34.0885   -5.1577   16.1693 C   0  0  0  0  0  0  0  0  0  0  0  0
   35.2011   -5.6075   16.8878 C   0  0  0  0  0  0  0  0  0  0  0  0
   36.1577   -4.6994   17.3444 C   0  0  0  0  0  0  0  0  0  0  0  0
   36.0211   -3.3210   17.0880 C   0  0  0  0  0  0  0  0  0  0  0  0
   34.8911   -2.8786   16.3730 C   0  0  0  0  0  0  0  0  0  0  0  0
   33.9356   -3.7932   15.9147 C   0  0  0  0  0  0  0  0  0  0  0  0
   33.2147   -7.0521   15.8843 H   0  0  0  0  0  0  0  0  0  0  0  0
   35.8689   -2.2003   19.8660 C   0  0  0  0  0  0  0  0  0  0  0  0
   36.6123   -2.9993   20.7542 C   0  0  0  0  0  0  0  0  0  0  0  0
   35.9727   -3.7108   21.7694 C   0  0  0  0  0  0  0  0  0  0  0  0
   34.5787   -3.6146   21.9376 C   0  0  0  0  0  0  0  0  0  0  0  0
   33.8472   -2.7728   21.0882 C   0  0  0  0  0  0  0  0  0  0  0  0
   34.4823   -2.0720   20.0599 C   0  0  0  0  0  0  0  0  0  0  0  0
   33.8851   -4.3265   22.9316 O   0  0  0  0  0  0  0  0  0  0  0  0
   32.7358   -3.8571   23.6387 C   0  0  0  0  0  0  0  0  0  0  0  0
   33.1638   -3.2115   24.9776 C   0  0  0  0  0  0  0  0  0  0  0  0
   32.4842   -1.9341   25.3011 N   0  0  0  0  0  0  0  0  0  0  0  0
   31.4762   -1.5202   24.3104 C   0  0  0  0  0  0  0  0  0  0  0  0
   30.2455   -1.0473   25.0718 C   0  0  0  0  0  0  0  0  0  0  0  0
   30.3649   -1.6827   26.4419 C   0  0  0  0  0  0  0  0  0  0  0  0
   29.7133   -2.9272   26.4416 O   0  0  0  0  0  0  0  0  0  0  0  0
   31.8657   -1.8725   26.6356 C   0  0  0  0  0  0  0  0  0  0  0  0
   29.5180   -3.1353   27.3905 H   0  0  0  0  0  0  0  0  0  0  0  0
 13 14  1  0  0  0
 14 15  2  0  0  0
 15 16  1  0  0  0
 16 17  2  0  0  0
 17  1  1  0  0  0
  1  2  1  0  0  0
  2  3  1  0  0  0
  3  4  2  0  0  0
  4  5  1  0  0  0
  5  6  1  0  0  0
  5  7  2  0  0  0
  7  8  1  0  0  0
  8  9  2  0  0  0
  9 10  1  0  0  0
 10 11  1  0  0  0
 11 21  1  0  0  0
 21 22  2  0  0  0
 22 23  1  0  0  0
 23 24  2  0  0  0
 24 27  1  0  0  0
 27 28  1  0  0  0
 28 29  1  0  0  0
 29 30  1  0  0  0
 30 31  1  0  0  0
 31 32  1  0  0  0
 32 33  1  0  0  0
 33 34  1  0  0  0
 33 35  1  0  0  0
 24 25  1  0  0  0
 25 26  2  0  0  0
 17 18  1  0  0  0
 18 19  2  0  0  0
 19 14  1  0  0  0
 11  1  1  0  0  0
 26 21  1  0  0  0
  9  3  1  0  0  0
 35 30  1  0  0  0
 13 20  1  0  0  0
  6 12  1  0  0  0
 34 36  1  0  0  0
M  END
> <minimizedAffinity>
-9.16052

$$$$
CHEMBL185114


 36 40  0  0  0  0  0  0  0  0999 V2000
   37.5884   -1.3517   17.3947 C   0  0  0  0  0  0  0  0  0  0  0  0
   38.4260   -0.1959   16.2534 S   0  0  0  0  0  0  0  0  0  0  0  0
   37.0397    0.8881   15.8856 C   0  0  0  0  0  0  0  0  0  0  0  0
   37.0664    1.6003   14.6790 C   0  0  0  0  0  0  0  0  0  0  0  0
   36.0383    2.4968   14.3577 C   0  0  0  0  0  0  0  0  0  0  0  0
   36.0591    3.2052   13.1564 O   0  0  0  0  0  0  0  0  0  0  0  0
   34.9815    2.6861   15.2504 C   0  0  0  0  0  0  0  0  0  0  0  0
   34.9271    1.9521   16.4394 C   0  0  0  0  0  0  0  0  0  0  0  0
   35.9455    1.0463   16.7608 C   0  0  0  0  0  0  0  0  0  0  0  0
   35.7905    0.2660   17.9083 O   0  0  0  0  0  0  0  0  0  0  0  0
   36.7833   -0.5882   18.4677 C   0  0  0  0  0  0  0  0  0  0  0  0
   36.8287    3.1114   12.4988 H   0  0  0  0  0  0  0  0  0  0  0  0
   34.7338   -5.6439   14.8786 O   0  0  0  0  0  0  0  0  0  0  0  0
   35.4281   -4.5991   15.4844 C   0  0  0  0  0  0  0  0  0  0  0  0
   36.5722   -4.8508   16.2487 C   0  0  0  0  0  0  0  0  0  0  0  0
   37.2660   -3.7966   16.8449 C   0  0  0  0  0  0  0  0  0  0  0  0
   36.8294   -2.4668   16.6853 C   0  0  0  0  0  0  0  0  0  0  0  0
   35.6699   -2.2264   15.9226 C   0  0  0  0  0  0  0  0  0  0  0  0
   34.9789   -3.2866   15.3243 C   0  0  0  0  0  0  0  0  0  0  0  0
   35.0329   -6.6072   14.9895 H   0  0  0  0  0  0  0  0  0  0  0  0
   36.1419   -1.5425   19.4547 C   0  0  0  0  0  0  0  0  0  0  0  0
   34.7420   -1.6628   19.5304 C   0  0  0  0  0  0  0  0  0  0  0  0
   34.1564   -2.5460   20.4375 C   0  0  0  0  0  0  0  0  0  0  0  0
   34.9589   -3.3509   21.2675 C   0  0  0  0  0  0  0  0  0  0  0  0
   36.3536   -3.2718   21.1498 C   0  0  0  0  0  0  0  0  0  0  0  0
   36.9433   -2.3761   20.2543 C   0  0  0  0  0  0  0  0  0  0  0  0
   34.4178   -4.2411   22.2112 O   0  0  0  0  0  0  0  0  0  0  0  0
   33.1912   -4.0544   22.9196 C   0  0  0  0  0  0  0  0  0  0  0  0
   33.4747   -3.4903   24.3317 C   0  0  0  0  0  0  0  0  0  0  0  0
   32.9200   -2.1396   24.5884 N   0  0  0  0  0  0  0  0  0  0  0  0
   31.8111   -1.7640   23.6950 C   0  0  0  0  0  0  0  0  0  0  0  0
   30.7254   -1.1233   24.5486 C   0  0  0  0  0  0  0  0  0  0  0  0
   30.9947   -1.6131   25.9567 C   0  0  0  0  0  0  0  0  0  0  0  0
   30.2791   -2.7998   26.1869 O   0  0  0  0  0  0  0  0  0  0  0  0
   32.4945   -1.8887   25.9752 C   0  0  0  0  0  0  0  0  0  0  0  0
   30.2041   -2.8890   27.1708 H   0  0  0  0  0  0  0  0  0  0  0  0
 13 14  1  0  0  0
 14 15  2  0  0  0
 15 16  1  0  0  0
 16 17  2  0  0  0
 17  1  1  0  0  0
  1  2  1  0  0  0
  2  3  1  0  0  0
  3  4  2  0  0  0
  4  5  1  0  0  0
  5  6  1  0  0  0
  5  7  2  0  0  0
  7  8  1  0  0  0
  8  9  2  0  0  0
  9 10  1  0  0  0
 10 11  1  0  0  0
 11 21  1  0  0  0
 21 22  2  0  0  0
 22 23  1  0  0  0
 23 24  2  0  0  0
 24 27  1  0  0  0
 27 28  1  0  0  0
 28 29  1  0  0  0
 29 30  1  0  0  0
 30 31  1  0  0  0
 31 32  1  0  0  0
 32 33  1  0  0  0
 33 34  1  0  0  0
 33 35  1  0  0  0
 24 25  1  0  0  0
 25 26  2  0  0  0
 17 18  1  0  0  0
 18 19  2  0  0  0
 19 14  1  0  0  0
 11  1  1  0  0  0
 26 21  1  0  0  0
  9  3  1  0  0  0
 35 30  1  0  0  0
 13 20  1  0  0  0
  6 12  1  0  0  0
 34 36  1  0  0  0
M  END
> <minimizedAffinity>
-9.14329

$$$$
CHEMBL185114


 36 40  0  0  0  0  0  0  0  0999 V2000
   36.6756   -3.0733   17.5776 C   0  0  0  0  0  0  0  0  0  0  0  0
   35.8708   -4.1763   18.7924 S   0  0  0  0  0  0  0  0  0  0  0  0
   34.1712   -3.6279   18.5854 C   0  0  0  0  0  0  0  0  0  0  0  0
   33.2857   -3.8194   19.6546 C   0  0  0  0  0  0  0  0  0  0  0  0
   31.9372   -3.4563   19.5369 C   0  0  0  0  0  0  0  0  0  0  0  0
   31.0531   -3.6420   20.5995 O   0  0  0  0  0  0  0  0  0  0  0  0
   31.4713   -2.9045   18.3419 C   0  0  0  0  0  0  0  0  0  0  0  0
   32.3553   -2.6751   17.2830 C   0  0  0  0  0  0  0  0  0  0  0  0
   33.7062   -3.0251   17.3987 C   0  0  0  0  0  0  0  0  0  0  0  0
   34.5642   -2.6809   16.3522 O   0  0  0  0  0  0  0  0  0  0  0  0
   35.9236   -3.0876   16.2297 C   0  0  0  0  0  0  0  0  0  0  0  0
   31.3549   -4.0677   21.4720 H   0  0  0  0  0  0  0  0  0  0  0  0
   37.9628    2.1766   19.4969 O   0  0  0  0  0  0  0  0  0  0  0  0
   37.6486    0.9000   19.0362 C   0  0  0  0  0  0  0  0  0  0  0  0
   38.6323    0.0839   18.4682 C   0  0  0  0  0  0  0  0  0  0  0  0
   38.3095   -1.1969   18.0171 C   0  0  0  0  0  0  0  0  0  0  0  0
   36.9940   -1.6884   18.1283 C   0  0  0  0  0  0  0  0  0  0  0  0
   36.0095   -0.8536   18.6919 C   0  0  0  0  0  0  0  0  0  0  0  0
   36.3384    0.4293   19.1455 C   0  0  0  0  0  0  0  0  0  0  0  0
   38.9046    2.5462   19.4181 H   0  0  0  0  0  0  0  0  0  0  0  0
   36.6262   -2.2255   15.2004 C   0  0  0  0  0  0  0  0  0  0  0  0
   37.7254   -2.7236   14.4769 C   0  0  0  0  0  0  0  0  0  0  0  0
   38.3659   -1.9276   13.5272 C   0  0  0  0  0  0  0  0  0  0  0  0
   37.9019   -0.6264   13.2583 C   0  0  0  0  0  0  0  0  0  0  0  0
   36.7711   -0.1530   13.9385 C   0  0  0  0  0  0  0  0  0  0  0  0
   36.1376   -0.9413   14.9024 C   0  0  0  0  0  0  0  0  0  0  0  0
   38.5242    0.2218   12.3261 O   0  0  0  0  0  0  0  0  0  0  0  0
   39.0029    1.5408   12.5951 C   0  0  0  0  0  0  0  0  0  0  0  0
   38.0633    2.5875   11.9515 C   0  0  0  0  0  0  0  0  0  0  0  0
   37.7644    3.7654   12.8009 N   0  0  0  0  0  0  0  0  0  0  0  0
   36.7443    4.6683   12.2414 C   0  0  0  0  0  0  0  0  0  0  0  0
   35.7925    5.0464   13.3679 C   0  0  0  0  0  0  0  0  0  0  0  0
   35.9654    3.9586   14.4080 C   0  0  0  0  0  0  0  0  0  0  0  0
   35.0446    2.9256   14.1659 O   0  0  0  0  0  0  0  0  0  0  0  0
   37.3896    3.4581   14.1910 C   0  0  0  0  0  0  0  0  0  0  0  0
   34.9529    2.4334   15.0209 H   0  0  0  0  0  0  0  0  0  0  0  0
 13 14  1  0  0  0
 14 15  2  0  0  0
 15 16  1  0  0  0
 16 17  2  0  0  0
 17  1  1  0  0  0
  1  2  1  0  0  0
  2  3  1  0  0  0
  3  4  2  0  0  0
  4  5  1  0  0  0
  5  6  1  0  0  0
  5  7  2  0  0  0
  7  8  1  0  0  0
  8  9  2  0  0  0
  9 10  1  0  0  0
 10 11  1  0  0  0
 11 21  1  0  0  0
 21 22  2  0  0  0
 22 23  1  0  0  0
 23 24  2  0  0  0
 24 27  1  0  0  0
 27 28  1  0  0  0
 28 29  1  0  0  0
 29 30  1  0  0  0
 30 31  1  0  0  0
 31 32  1  0  0  0
 32 33  1  0  0  0
 33 34  1  0  0  0
 33 35  1  0  0  0
 24 25  1  0  0  0
 25 26  2  0  0  0
 17 18  1  0  0  0
 18 19  2  0  0  0
 19 14  1  0  0  0
 11  1  1  0  0  0
 26 21  1  0  0  0
  9  3  1  0  0  0
 35 30  1  0  0  0
 13 20  1  0  0  0
  6 12  1  0  0  0
 34 36  1  0  0  0
M  END
> <minimizedAffinity>
-8.42418

$$$$
CHEMBL185114


 36 40  0  0  0  0  0  0  0  0999 V2000
   37.2588   -3.8858   18.7277 C   0  0  0  0  0  0  0  0  0  0  0  0
   38.7610   -3.6222   17.7208 S   0  0  0  0  0  0  0  0  0  0  0  0
   38.6560   -1.8384   17.5230 C   0  0  0  0  0  0  0  0  0  0  0  0
   39.2916   -1.2630   16.4145 C   0  0  0  0  0  0  0  0  0  0  0  0
   39.2856    0.1263   16.2312 C   0  0  0  0  0  0  0  0  0  0  0  0
   39.9141    0.7030   15.1277 O   0  0  0  0  0  0  0  0  0  0  0  0
   38.6459    0.9444   17.1645 C   0  0  0  0  0  0  0  0  0  0  0  0
   37.9771    0.3768   18.2535 C   0  0  0  0  0  0  0  0  0  0  0  0
   37.9696   -1.0116   18.4359 C   0  0  0  0  0  0  0  0  0  0  0  0
   37.2022   -1.5313   19.4802 O   0  0  0  0  0  0  0  0  0  0  0  0
   37.1972   -2.8905   19.9057 C   0  0  0  0  0  0  0  0  0  0  0  0
   40.4130    0.1372   14.4461 H   0  0  0  0  0  0  0  0  0  0  0  0
   32.5513   -4.2583   15.4714 O   0  0  0  0  0  0  0  0  0  0  0  0
   33.6912   -4.1676   16.2671 C   0  0  0  0  0  0  0  0  0  0  0  0
   34.5756   -3.0930   16.1273 C   0  0  0  0  0  0  0  0  0  0  0  0
   35.7108   -3.0065   16.9348 C   0  0  0  0  0  0  0  0  0  0  0  0
   35.9823   -3.9940   17.9021 C   0  0  0  0  0  0  0  0  0  0  0  0
   35.0905   -5.0770   18.0263 C   0  0  0  0  0  0  0  0  0  0  0  0
   33.9518   -5.1583   17.2161 C   0  0  0  0  0  0  0  0  0  0  0  0
   32.3458   -3.5577   14.7666 H   0  0  0  0  0  0  0  0  0  0  0  0
   35.9871   -3.1496   20.7802 C   0  0  0  0  0  0  0  0  0  0  0  0
   36.0561   -4.0624   21.8488 C   0  0  0  0  0  0  0  0  0  0  0  0
   34.9407   -4.2942   22.6538 C   0  0  0  0  0  0  0  0  0  0  0  0
   33.7404   -3.5952   22.4265 C   0  0  0  0  0  0  0  0  0  0  0  0
   33.6911   -2.6439   21.3979 C   0  0  0  0  0  0  0  0  0  0  0  0
   34.8012   -2.4216   20.5793 C   0  0  0  0  0  0  0  0  0  0  0  0
   32.5834   -3.8073   23.1961 O   0  0  0  0  0  0  0  0  0  0  0  0
   32.4097   -3.4133   24.5584 C   0  0  0  0  0  0  0  0  0  0  0  0
   32.4063   -1.8704   24.6681 C   0  0  0  0  0  0  0  0  0  0  0  0
   31.2638   -1.2997   25.4212 N   0  0  0  0  0  0  0  0  0  0  0  0
   30.5368   -2.2792   26.2464 C   0  0  0  0  0  0  0  0  0  0  0  0
   30.2743   -1.6383   27.6023 C   0  0  0  0  0  0  0  0  0  0  0  0
   31.2969   -0.5262   27.7140 C   0  0  0  0  0  0  0  0  0  0  0  0
   32.4607   -1.0173   28.3286 O   0  0  0  0  0  0  0  0  0  0  0  0
   31.5867   -0.1393   26.2675 C   0  0  0  0  0  0  0  0  0  0  0  0
   32.9386   -0.2256   28.6844 H   0  0  0  0  0  0  0  0  0  0  0  0
 13 14  1  0  0  0
 14 15  2  0  0  0
 15 16  1  0  0  0
 16 17  2  0  0  0
 17  1  1  0  0  0
  1  2  1  0  0  0
  2  3  1  0  0  0
  3  4  2  0  0  0
  4  5  1  0  0  0
  5  6  1  0  0  0
  5  7  2  0  0  0
  7  8  1  0  0  0
  8  9  2  0  0  0
  9 10  1  0  0  0
 10 11  1  0  0  0
 11 21  1  0  0  0
 21 22  2  0  0  0
 22 23  1  0  0  0
 23 24  2  0  0  0
 24 27  1  0  0  0
 27 28  1  0  0  0
 28 29  1  0  0  0
 29 30  1  0  0  0
 30 31  1  0  0  0
 31 32  1  0  0  0
 32 33  1  0  0  0
 33 34  1  0  0  0
 33 35  1  0  0  0
 24 25  1  0  0  0
 25 26  2  0  0  0
 17 18  1  0  0  0
 18 19  2  0  0  0
 19 14  1  0  0  0
 11  1  1  0  0  0
 26 21  1  0  0  0
  9  3  1  0  0  0
 35 30  1  0  0  0
 13 20  1  0  0  0
  6 12  1  0  0  0
 34 36  1  0  0  0
M  END
> <minimizedAffinity>
-8.31915

$$$$
CHEMBL185114


 36 40  0  0  0  0  0  0  0  0999 V2000
   36.7436   -4.1492   18.4492 C   0  0  0  0  0  0  0  0  0  0  0  0
   37.9176   -3.8301   17.0854 S   0  0  0  0  0  0  0  0  0  0  0  0
   37.1264   -2.3839   16.3678 C   0  0  0  0  0  0  0  0  0  0  0  0
   37.3746   -2.1031   15.0174 C   0  0  0  0  0  0  0  0  0  0  0  0
   36.8250   -0.9641   14.4137 C   0  0  0  0  0  0  0  0  0  0  0  0
   37.0667   -0.6824   13.0693 O   0  0  0  0  0  0  0  0  0  0  0  0
   36.0282   -0.0988   15.1660 C   0  0  0  0  0  0  0  0  0  0  0  0
   35.7444   -0.3907   16.5038 C   0  0  0  0  0  0  0  0  0  0  0  0
   36.2811   -1.5334   17.1095 C   0  0  0  0  0  0  0  0  0  0  0  0
   35.8837   -1.8314   18.4145 O   0  0  0  0  0  0  0  0  0  0  0  0
   36.4379   -2.8559   19.2341 C   0  0  0  0  0  0  0  0  0  0  0  0
   37.6658   -1.2768   12.5024 H   0  0  0  0  0  0  0  0  0  0  0  0
   32.0984   -7.2010   17.0309 O   0  0  0  0  0  0  0  0  0  0  0  0
   33.2287   -6.4605   17.3699 C   0  0  0  0  0  0  0  0  0  0  0  0
   34.0925   -6.8983   18.3791 C   0  0  0  0  0  0  0  0  0  0  0  0
   35.2270   -6.1538   18.7060 C   0  0  0  0  0  0  0  0  0  0  0  0
   35.5215   -4.9557   18.0260 C   0  0  0  0  0  0  0  0  0  0  0  0
   34.6386   -4.5191   17.0192 C   0  0  0  0  0  0  0  0  0  0  0  0
   33.5035   -5.2705   16.6929 C   0  0  0  0  0  0  0  0  0  0  0  0
   31.8703   -8.0628   17.5159 H   0  0  0  0  0  0  0  0  0  0  0  0
   35.5168   -3.1298   20.4057 C   0  0  0  0  0  0  0  0  0  0  0  0
   35.9653   -3.8738   21.5125 C   0  0  0  0  0  0  0  0  0  0  0  0
   35.1149   -4.1195   22.5907 C   0  0  0  0  0  0  0  0  0  0  0  0
   33.8068   -3.6003   22.5990 C   0  0  0  0  0  0  0  0  0  0  0  0
   33.3810   -2.8107   21.5217 C   0  0  0  0  0  0  0  0  0  0  0  0
   34.2244   -2.5768   20.4327 C   0  0  0  0  0  0  0  0  0  0  0  0
   32.9053   -3.8362   23.6515 O   0  0  0  0  0  0  0  0  0  0  0  0
   33.0286   -3.3243   24.9796 C   0  0  0  0  0  0  0  0  0  0  0  0
   32.5145   -1.8666   25.0361 C   0  0  0  0  0  0  0  0  0  0  0  0
   33.2777   -0.9689   25.9361 N   0  0  0  0  0  0  0  0  0  0  0  0
   32.8644    0.4431   25.8705 C   0  0  0  0  0  0  0  0  0  0  0  0
   32.7762    0.9666   27.2974 C   0  0  0  0  0  0  0  0  0  0  0  0
   32.6256   -0.2702   28.1593 C   0  0  0  0  0  0  0  0  0  0  0  0
   31.2619   -0.5607   28.3310 O   0  0  0  0  0  0  0  0  0  0  0  0
   33.3028   -1.3724   27.3516 C   0  0  0  0  0  0  0  0  0  0  0  0
   31.2018   -1.1280   29.1411 H   0  0  0  0  0  0  0  0  0  0  0  0
 13 14  1  0  0  0
 14 15  2  0  0  0
 15 16  1  0  0  0
 16 17  2  0  0  0
 17  1  1  0  0  0
  1  2  1  0  0  0
  2  3  1  0  0  0
  3  4  2  0  0  0
  4  5  1  0  0  0
  5  6  1  0  0  0
  5  7  2  0  0  0
  7  8  1  0  0  0
  8  9  2  0  0  0
  9 10  1  0  0  0
 10 11  1  0  0  0
 11 21  1  0  0  0
 21 22  2  0  0  0
 22 23  1  0  0  0
 23 24  2  0  0  0
 24 27  1  0  0  0
 27 28  1  0  0  0
 28 29  1  0  0  0
 29 30  1  0  0  0
 30 31  1  0  0  0
 31 32  1  0  0  0
 32 33  1  0  0  0
 33 34  1  0  0  0
 33 35  1  0  0  0
 24 25  1  0  0  0
 25 26  2  0  0  0
 17 18  1  0  0  0
 18 19  2  0  0  0
 19 14  1  0  0  0
 11  1  1  0  0  0
 26 21  1  0  0  0
  9  3  1  0  0  0
 35 30  1  0  0  0
 13 20  1  0  0  0
  6 12  1  0  0  0
 34 36  1  0  0  0
M  END
> <minimizedAffinity>
-8.30197

$$$$
CHEMBL185114


 36 40  0  0  0  0  0  0  0  0999 V2000
   38.0594    0.1916   16.9788 C   0  0  0  0  0  0  0  0  0  0  0  0
   38.6311    1.6458   16.0308 S   0  0  0  0  0  0  0  0  0  0  0  0
   37.0327    2.3652   15.6310 C   0  0  0  0  0  0  0  0  0  0  0  0
   36.9491    3.1900   14.5011 C   0  0  0  0  0  0  0  0  0  0  0  0
   35.7422    3.8177   14.1647 C   0  0  0  0  0  0  0  0  0  0  0  0
   35.6536    4.6368   13.0393 O   0  0  0  0  0  0  0  0  0  0  0  0
   34.6151    3.6241   14.9657 C   0  0  0  0  0  0  0  0  0  0  0  0
   34.6791    2.7732   16.0736 C   0  0  0  0  0  0  0  0  0  0  0  0
   35.8793    2.1339   16.4082 C   0  0  0  0  0  0  0  0  0  0  0  0
   35.8619    1.2170   17.4611 O   0  0  0  0  0  0  0  0  0  0  0  0
   37.0074    0.5940   18.0340 C   0  0  0  0  0  0  0  0  0  0  0  0
   36.4631    4.8208   12.4524 H   0  0  0  0  0  0  0  0  0  0  0  0
   36.7100   -4.3885   13.8000 O   0  0  0  0  0  0  0  0  0  0  0  0
   37.0362   -3.2726   14.5675 C   0  0  0  0  0  0  0  0  0  0  0  0
   38.3404   -3.0858   15.0371 C   0  0  0  0  0  0  0  0  0  0  0  0
   38.6596   -1.9603   15.7984 C   0  0  0  0  0  0  0  0  0  0  0  0
   37.6786   -0.9962   16.1029 C   0  0  0  0  0  0  0  0  0  0  0  0
   36.3663   -1.2005   15.6340 C   0  0  0  0  0  0  0  0  0  0  0  0
   36.0514   -2.3295   14.8685 C   0  0  0  0  0  0  0  0  0  0  0  0
   37.4045   -5.0942   13.5776 H   0  0  0  0  0  0  0  0  0  0  0  0
   36.5804   -0.5986   18.8656 C   0  0  0  0  0  0  0  0  0  0  0  0
   37.5343   -1.5072   19.3601 C   0  0  0  0  0  0  0  0  0  0  0  0
   37.1367   -2.6010   20.1290 C   0  0  0  0  0  0  0  0  0  0  0  0
   35.7790   -2.7932   20.4460 C   0  0  0  0  0  0  0  0  0  0  0  0
   34.8369   -1.8552   20.0013 C   0  0  0  0  0  0  0  0  0  0  0  0
   35.2296   -0.7678   19.2169 C   0  0  0  0  0  0  0  0  0  0  0  0
   35.3254   -3.8895   21.2000 O   0  0  0  0  0  0  0  0  0  0  0  0
   34.3761   -4.8625   20.7604 C   0  0  0  0  0  0  0  0  0  0  0  0
   34.7323   -5.3446   19.3344 C   0  0  0  0  0  0  0  0  0  0  0  0
   33.6084   -5.3218   18.3678 N   0  0  0  0  0  0  0  0  0  0  0  0
   33.5502   -4.1050   17.5403 C   0  0  0  0  0  0  0  0  0  0  0  0
   33.2747   -4.5335   16.1055 C   0  0  0  0  0  0  0  0  0  0  0  0
   33.6993   -5.9864   16.0426 C   0  0  0  0  0  0  0  0  0  0  0  0
   35.0482   -6.0660   15.6588 O   0  0  0  0  0  0  0  0  0  0  0  0
   33.5265   -6.4876   17.4726 C   0  0  0  0  0  0  0  0  0  0  0  0
   35.1795   -6.9821   15.3047 H   0  0  0  0  0  0  0  0  0  0  0  0
 13 14  1  0  0  0
 14 15  2  0  0  0
 15 16  1  0  0  0
 16 17  2  0  0  0
 17  1  1  0  0  0
  1  2  1  0  0  0
  2  3  1  0  0  0
  3  4  2  0  0  0
  4  5  1  0  0  0
  5  6  1  0  0  0
  5  7  2  0  0  0
  7  8  1  0  0  0
  8  9  2  0  0  0
  9 10  1  0  0  0
 10 11  1  0  0  0
 11 21  1  0  0  0
 21 22  2  0  0  0
 22 23  1  0  0  0
 23 24  2  0  0  0
 24 27  1  0  0  0
 27 28  1  0  0  0
 28 29  1  0  0  0
 29 30  1  0  0  0
 30 31  1  0  0  0
 31 32  1  0  0  0
 32 33  1  0  0  0
 33 34  1  0  0  0
 33 35  1  0  0  0
 24 25  1  0  0  0
 25 26  2  0  0  0
 17 18  1  0  0  0
 18 19  2  0  0  0
 19 14  1  0  0  0
 11  1  1  0  0  0
 26 21  1  0  0  0
  9  3  1  0  0  0
 35 30  1  0  0  0
 13 20  1  0  0  0
  6 12  1  0  0  0
 34 36  1  0  0  0
M  END
> <minimizedAffinity>
-8.28502

$$$$
CHEMBL185114


 36 40  0  0  0  0  0  0  0  0999 V2000
   36.4754   -3.2675   17.6828 C   0  0  0  0  0  0  0  0  0  0  0  0
   35.5848   -4.2746   18.9209 S   0  0  0  0  0  0  0  0  0  0  0  0
   33.9218   -3.6493   18.6463 C   0  0  0  0  0  0  0  0  0  0  0  0
   33.0017   -3.7490   19.6987 C   0  0  0  0  0  0  0  0  0  0  0  0
   31.6774   -3.3229   19.5302 C   0  0  0  0  0  0  0  0  0  0  0  0
   30.7592   -3.4172   20.5758 O   0  0  0  0  0  0  0  0  0  0  0  0
   31.2700   -2.8000   18.3013 C   0  0  0  0  0  0  0  0  0  0  0  0
   32.1903   -2.6619   17.2576 C   0  0  0  0  0  0  0  0  0  0  0  0
   33.5179   -3.0752   17.4235 C   0  0  0  0  0  0  0  0  0  0  0  0
   34.4179   -2.8207   16.3867 O   0  0  0  0  0  0  0  0  0  0  0  0
   35.7568   -3.3014   16.3173 C   0  0  0  0  0  0  0  0  0  0  0  0
   31.0170   -3.8198   21.4731 H   0  0  0  0  0  0  0  0  0  0  0  0
   37.9865    1.9882   19.4140 O   0  0  0  0  0  0  0  0  0  0  0  0
   37.6177    0.7105   18.9990 C   0  0  0  0  0  0  0  0  0  0  0  0
   38.5692   -0.1739   18.4803 C   0  0  0  0  0  0  0  0  0  0  0  0
   38.1916   -1.4550   18.0750 C   0  0  0  0  0  0  0  0  0  0  0  0
   36.8523   -1.8782   18.1836 C   0  0  0  0  0  0  0  0  0  0  0  0
   35.9011   -0.9753   18.6970 C   0  0  0  0  0  0  0  0  0  0  0  0
   36.2849    0.3077   19.1049 C   0  0  0  0  0  0  0  0  0  0  0  0
   38.9461    2.3090   19.3363 H   0  0  0  0  0  0  0  0  0  0  0  0
   36.5282   -2.5215   15.2719 C   0  0  0  0  0  0  0  0  0  0  0  0
   36.1830   -1.1914   14.9692 C   0  0  0  0  0  0  0  0  0  0  0  0
   36.8991   -0.4762   14.0093 C   0  0  0  0  0  0  0  0  0  0  0  0
   37.9956   -1.0656   13.3527 C   0  0  0  0  0  0  0  0  0  0  0  0
   38.3739   -2.3708   13.6973 C   0  0  0  0  0  0  0  0  0  0  0  0
   37.6486   -3.0957   14.6461 C   0  0  0  0  0  0  0  0  0  0  0  0
   38.7363   -0.3945   12.3643 O   0  0  0  0  0  0  0  0  0  0  0  0
   39.8346   -0.9444   11.6345 C   0  0  0  0  0  0  0  0  0  0  0  0
   41.1702   -0.4120   12.2049 C   0  0  0  0  0  0  0  0  0  0  0  0
   42.3688   -1.1994   11.8287 N   0  0  0  0  0  0  0  0  0  0  0  0
   43.0256   -1.8746   12.9608 C   0  0  0  0  0  0  0  0  0  0  0  0
   43.3635   -3.2926   12.5214 C   0  0  0  0  0  0  0  0  0  0  0  0
   42.4390   -3.5713   11.3540 C   0  0  0  0  0  0  0  0  0  0  0  0
   41.2490   -4.1509   11.8243 O   0  0  0  0  0  0  0  0  0  0  0  0
   42.1581   -2.1935   10.7636 C   0  0  0  0  0  0  0  0  0  0  0  0
   40.8448   -4.6164   11.0485 H   0  0  0  0  0  0  0  0  0  0  0  0
 13 14  1  0  0  0
 14 15  2  0  0  0
 15 16  1  0  0  0
 16 17  2  0  0  0
 17  1  1  0  0  0
  1  2  1  0  0  0
  2  3  1  0  0  0
  3  4  2  0  0  0
  4  5  1  0  0  0
  5  6  1  0  0  0
  5  7  2  0  0  0
  7  8  1  0  0  0
  8  9  2  0  0  0
  9 10  1  0  0  0
 10 11  1  0  0  0
 11 21  1  0  0  0
 21 22  2  0  0  0
 22 23  1  0  0  0
 23 24  2  0  0  0
 24 27  1  0  0  0
 27 28  1  0  0  0
 28 29  1  0  0  0
 29 30  1  0  0  0
 30 31  1  0  0  0
 31 32  1  0  0  0
 32 33  1  0  0  0
 33 34  1  0  0  0
 33 35  1  0  0  0
 24 25  1  0  0  0
 25 26  2  0  0  0
 17 18  1  0  0  0
 18 19  2  0  0  0
 19 14  1  0  0  0
 11  1  1  0  0  0
 26 21  1  0  0  0
  9  3  1  0  0  0
 35 30  1  0  0  0
 13 20  1  0  0  0
  6 12  1  0  0  0
 34 36  1  0  0  0
M  END
> <minimizedAffinity>
-8.24974

$$$$
CHEMBL185114


 36 40  0  0  0  0  0  0  0  0999 V2000
   35.3560   -1.6645   16.4719 C   0  0  0  0  0  0  0  0  0  0  0  0
   34.2032   -3.0787   16.3657 S   0  0  0  0  0  0  0  0  0  0  0  0
   34.3420   -3.6803   18.0542 C   0  0  0  0  0  0  0  0  0  0  0  0
   34.0452   -5.0283   18.2965 C   0  0  0  0  0  0  0  0  0  0  0  0
   34.0891   -5.5448   19.5985 C   0  0  0  0  0  0  0  0  0  0  0  0
   33.7978   -6.8866   19.8437 O   0  0  0  0  0  0  0  0  0  0  0  0
   34.4257   -4.7075   20.6638 C   0  0  0  0  0  0  0  0  0  0  0  0
   34.7598   -3.3704   20.4272 C   0  0  0  0  0  0  0  0  0  0  0  0
   34.7291   -2.8512   19.1270 C   0  0  0  0  0  0  0  0  0  0  0  0
   35.1699   -1.5405   18.9342 O   0  0  0  0  0  0  0  0  0  0  0  0
   35.0667   -0.8036   17.7198 C   0  0  0  0  0  0  0  0  0  0  0  0
   33.5213   -7.5148   19.0937 H   0  0  0  0  0  0  0  0  0  0  0  0
   40.8023   -3.2964   15.7117 O   0  0  0  0  0  0  0  0  0  0  0  0
   39.4814   -2.8948   15.8983 C   0  0  0  0  0  0  0  0  0  0  0  0
   38.6437   -3.5845   16.7809 C   0  0  0  0  0  0  0  0  0  0  0  0
   37.3241   -3.1695   16.9675 C   0  0  0  0  0  0  0  0  0  0  0  0
   36.8168   -2.0523   16.2754 C   0  0  0  0  0  0  0  0  0  0  0  0
   37.6663   -1.3724   15.3810 C   0  0  0  0  0  0  0  0  0  0  0  0
   38.9898   -1.7905   15.1991 C   0  0  0  0  0  0  0  0  0  0  0  0
   41.1798   -4.1026   16.1987 H   0  0  0  0  0  0  0  0  0  0  0  0
   35.9777    0.4061   17.7749 C   0  0  0  0  0  0  0  0  0  0  0  0
   35.8155    1.4686   16.8669 C   0  0  0  0  0  0  0  0  0  0  0  0
   36.6537    2.5821   16.9246 C   0  0  0  0  0  0  0  0  0  0  0  0
   37.6532    2.6711   17.9115 C   0  0  0  0  0  0  0  0  0  0  0  0
   37.7756    1.6381   18.8513 C   0  0  0  0  0  0  0  0  0  0  0  0
   36.9487    0.5138   18.7860 C   0  0  0  0  0  0  0  0  0  0  0  0
   38.5356    3.7618   17.9993 O   0  0  0  0  0  0  0  0  0  0  0  0
   38.9680    4.5692   16.9028 C   0  0  0  0  0  0  0  0  0  0  0  0
   38.1449    5.8778   16.8505 C   0  0  0  0  0  0  0  0  0  0  0  0
   38.7784    7.0418   17.5152 N   0  0  0  0  0  0  0  0  0  0  0  0
   38.0697    7.5071   18.7194 C   0  0  0  0  0  0  0  0  0  0  0  0
   39.1124    7.7738   19.7963 C   0  0  0  0  0  0  0  0  0  0  0  0
   40.3245    6.9684   19.3754 C   0  0  0  0  0  0  0  0  0  0  0  0
   40.2619    5.6885   19.9510 O   0  0  0  0  0  0  0  0  0  0  0  0
   40.1998    6.8719   17.8585 C   0  0  0  0  0  0  0  0  0  0  0  0
   41.1886    5.3380   19.9431 H   0  0  0  0  0  0  0  0  0  0  0  0
 13 14  1  0  0  0
 14 15  2  0  0  0
 15 16  1  0  0  0
 16 17  2  0  0  0
 17  1  1  0  0  0
  1  2  1  0  0  0
  2  3  1  0  0  0
  3  4  2  0  0  0
  4  5  1  0  0  0
  5  6  1  0  0  0
  5  7  2  0  0  0
  7  8  1  0  0  0
  8  9  2  0  0  0
  9 10  1  0  0  0
 10 11  1  0  0  0
 11 21  1  0  0  0
 21 22  2  0  0  0
 22 23  1  0  0  0
 23 24  2  0  0  0
 24 27  1  0  0  0
 27 28  1  0  0  0
 28 29  1  0  0  0
 29 30  1  0  0  0
 30 31  1  0  0  0
 31 32  1  0  0  0
 32 33  1  0  0  0
 33 34  1  0  0  0
 33 35  1  0  0  0
 24 25  1  0  0  0
 25 26  2  0  0  0
 17 18  1  0  0  0
 18 19  2  0  0  0
 19 14  1  0  0  0
 11  1  1  0  0  0
 26 21  1  0  0  0
  9  3  1  0  0  0
 35 30  1  0  0  0
 13 20  1  0  0  0
  6 12  1  0  0  0
 34 36  1  0  0  0
M  END
> <minimizedAffinity>
-8.17976

$$$$
CHEMBL185114


 36 40  0  0  0  0  0  0  0  0999 V2000
   37.0501   -4.1229   18.8781 C   0  0  0  0  0  0  0  0  0  0  0  0
   38.5651   -4.0157   17.8616 S   0  0  0  0  0  0  0  0  0  0  0  0
   38.6083   -2.2361   17.6104 C   0  0  0  0  0  0  0  0  0  0  0  0
   39.2852   -1.7491   16.4841 C   0  0  0  0  0  0  0  0  0  0  0  0
   39.3944   -0.3702   16.2592 C   0  0  0  0  0  0  0  0  0  0  0  0
   40.0643    0.1188   15.1379 O   0  0  0  0  0  0  0  0  0  0  0  0
   38.8287    0.5259   17.1684 C   0  0  0  0  0  0  0  0  0  0  0  0
   38.1191    0.0488   18.2749 C   0  0  0  0  0  0  0  0  0  0  0  0
   37.9967   -1.3280   18.4989 C   0  0  0  0  0  0  0  0  0  0  0  0
   37.1928   -1.7504   19.5595 O   0  0  0  0  0  0  0  0  0  0  0  0
   37.0762   -3.0912   20.0257 C   0  0  0  0  0  0  0  0  0  0  0  0
   40.5117   -0.5067   14.4729 H   0  0  0  0  0  0  0  0  0  0  0  0
   32.1231   -4.2511   15.9436 O   0  0  0  0  0  0  0  0  0  0  0  0
   33.3227   -4.2203   16.6512 C   0  0  0  0  0  0  0  0  0  0  0  0
   33.6281   -5.2186   17.5821 C   0  0  0  0  0  0  0  0  0  0  0  0
   34.8363   -5.1838   18.2802 C   0  0  0  0  0  0  0  0  0  0  0  0
   35.7657   -4.1488   18.0579 C   0  0  0  0  0  0  0  0  0  0  0  0
   35.4425   -3.1431   17.1263 C   0  0  0  0  0  0  0  0  0  0  0  0
   34.2308   -3.1836   16.4265 C   0  0  0  0  0  0  0  0  0  0  0  0
   31.4414   -4.9869   16.0973 H   0  0  0  0  0  0  0  0  0  0  0  0
   35.8521   -3.2223   20.9094 C   0  0  0  0  0  0  0  0  0  0  0  0
   34.6954   -2.4642   20.6502 C   0  0  0  0  0  0  0  0  0  0  0  0
   33.5696   -2.5918   21.4639 C   0  0  0  0  0  0  0  0  0  0  0  0
   33.5652   -3.5031   22.5364 C   0  0  0  0  0  0  0  0  0  0  0  0
   34.6977   -4.2993   22.7576 C   0  0  0  0  0  0  0  0  0  0  0  0
   35.8330   -4.1619   21.9550 C   0  0  0  0  0  0  0  0  0  0  0  0
   32.4641   -3.6543   23.3969 O   0  0  0  0  0  0  0  0  0  0  0  0
   32.4928   -3.4954   24.8165 C   0  0  0  0  0  0  0  0  0  0  0  0
   31.9655   -2.0938   25.2041 C   0  0  0  0  0  0  0  0  0  0  0  0
   31.3638   -2.0041   26.5561 N   0  0  0  0  0  0  0  0  0  0  0  0
   31.6195   -0.7282   27.2458 C   0  0  0  0  0  0  0  0  0  0  0  0
   30.3123   -0.2754   27.8815 C   0  0  0  0  0  0  0  0  0  0  0  0
   29.2301   -1.0090   27.1161 C   0  0  0  0  0  0  0  0  0  0  0  0
   28.8096   -0.2255   26.0286 O   0  0  0  0  0  0  0  0  0  0  0  0
   29.9184   -2.2761   26.6193 C   0  0  0  0  0  0  0  0  0  0  0  0
   27.9111   -0.5609   25.7796 H   0  0  0  0  0  0  0  0  0  0  0  0
 13 14  1  0  0  0
 14 15  2  0  0  0
 15 16  1  0  0  0
 16 17  2  0  0  0
 17  1  1  0  0  0
  1  2  1  0  0  0
  2  3  1  0  0  0
  3  4  2  0  0  0
  4  5  1  0  0  0
  5  6  1  0  0  0
  5  7  2  0  0  0
  7  8  1  0  0  0
  8  9  2  0  0  0
  9 10  1  0  0  0
 10 11  1  0  0  0
 11 21  1  0  0  0
 21 22  2  0  0  0
 22 23  1  0  0  0
 23 24  2  0  0  0
 24 27  1  0  0  0
 27 28  1  0  0  0
 28 29  1  0  0  0
 29 30  1  0  0  0
 30 31  1  0  0  0
 31 32  1  0  0  0
 32 33  1  0  0  0
 33 34  1  0  0  0
 33 35  1  0  0  0
 24 25  1  0  0  0
 25 26  2  0  0  0
 17 18  1  0  0  0
 18 19  2  0  0  0
 19 14  1  0  0  0
 11  1  1  0  0  0
 26 21  1  0  0  0
  9  3  1  0  0  0
 35 30  1  0  0  0
 13 20  1  0  0  0
  6 12  1  0  0  0
 34 36  1  0  0  0
M  END
> <minimizedAffinity>
-8.17652

$$$$
CHEMBL304552


 35 39  0  0  0  0  0  0  0  0999 V2000
   31.1677   -0.6753   27.3590 C   0  0  0  0  0  0  0  0  0  0  0  0
   29.9648    0.3022   26.3890 S   0  0  0  0  0  0  0  0  0  0  0  0
   28.5615   -0.6501   26.9626 C   0  0  0  0  0  0  0  0  0  0  0  0
   27.3534    0.0041   27.2417 C   0  0  0  0  0  0  0  0  0  0  0  0
   26.2117   -0.7384   27.5770 C   0  0  0  0  0  0  0  0  0  0  0  0
   24.9946   -0.1059   27.8228 O   0  0  0  0  0  0  0  0  0  0  0  0
   26.2869   -2.1318   27.6499 C   0  0  0  0  0  0  0  0  0  0  0  0
   27.4934   -2.7854   27.3843 C   0  0  0  0  0  0  0  0  0  0  0  0
   28.6409   -2.0510   27.0598 C   0  0  0  0  0  0  0  0  0  0  0  0
   29.8486   -2.7392   26.8674 O   0  0  0  0  0  0  0  0  0  0  0  0
   31.1632   -2.1630   26.9117 C   0  0  0  0  0  0  0  0  0  0  0  0
   24.8924    0.9018   27.7577 H   0  0  0  0  0  0  0  0  0  0  0  0
   36.5113    1.3771   27.0972 O   0  0  0  0  0  0  0  0  0  0  0  0
   35.2119    0.8807   27.1649 C   0  0  0  0  0  0  0  0  0  0  0  0
   34.2429    1.3677   26.2826 C   0  0  0  0  0  0  0  0  0  0  0  0
   32.9328    0.8854   26.3421 C   0  0  0  0  0  0  0  0  0  0  0  0
   32.5657   -0.0801   27.3076 C   0  0  0  0  0  0  0  0  0  0  0  0
   33.5536   -0.5740   28.1768 C   0  0  0  0  0  0  0  0  0  0  0  0
   34.8666   -0.1030   28.1026 C   0  0  0  0  0  0  0  0  0  0  0  0
   37.2396    1.0333   27.7147 H   0  0  0  0  0  0  0  0  0  0  0  0
   31.8681   -2.3971   25.5902 C   0  0  0  0  0  0  0  0  0  0  0  0
   31.3690   -1.8060   24.4175 C   0  0  0  0  0  0  0  0  0  0  0  0
   31.9943   -2.0297   23.1903 C   0  0  0  0  0  0  0  0  0  0  0  0
   33.1112   -2.8642   23.1032 C   0  0  0  0  0  0  0  0  0  0  0  0
   33.6141   -3.4634   24.2738 C   0  0  0  0  0  0  0  0  0  0  0  0
   32.9972   -3.2298   25.5063 C   0  0  0  0  0  0  0  0  0  0  0  0
   33.6840   -3.0732   21.8397 O   0  0  0  0  0  0  0  0  0  0  0  0
   34.8770   -3.8190   21.5907 C   0  0  0  0  0  0  0  0  0  0  0  0
   35.9715   -2.9217   20.9993 C   0  0  0  0  0  0  0  0  0  0  0  0
   35.8092   -2.7987   19.5322 N   0  0  0  0  0  0  0  0  0  0  0  0
   37.0934   -2.8383   18.7999 C   0  0  0  0  0  0  0  0  0  0  0  0
   37.8898   -1.5370   18.9629 C   0  0  0  0  0  0  0  0  0  0  0  0
   37.0542   -0.3421   18.5007 C   0  0  0  0  0  0  0  0  0  0  0  0
   35.7152   -0.2980   19.2395 C   0  0  0  0  0  0  0  0  0  0  0  0
   34.9754   -1.6434   19.1257 C   0  0  0  0  0  0  0  0  0  0  0  0
 13 14  1  0  0  0
 14 15  2  0  0  0
 15 16  1  0  0  0
 16 17  2  0  0  0
 17  1  1  0  0  0
  1  2  1  0  0  0
  2  3  1  0  0  0
  3  4  2  0  0  0
  4  5  1  0  0  0
  5  6  1  0  0  0
  5  7  2  0  0  0
  7  8  1  0  0  0
  8  9  2  0  0  0
  9 10  1  0  0  0
 10 11  1  0  0  0
 11 21  1  0  0  0
 21 22  2  0  0  0
 22 23  1  0  0  0
 23 24  2  0  0  0
 24 27  1  0  0  0
 27 28  1  0  0  0
 28 29  1  0  0  0
 29 30  1  0  0  0
 30 31  1  0  0  0
 31 32  1  0  0  0
 32 33  1  0  0  0
 33 34  1  0  0  0
 34 35  1  0  0  0
 24 25  1  0  0  0
 25 26  2  0  0  0
 17 18  1  0  0  0
 18 19  2  0  0  0
 19 14  1  0  0  0
 11  1  1  0  0  0
 26 21  1  0  0  0
  9  3  1  0  0  0
 35 30  1  0  0  0
 13 20  1  0  0  0
  6 12  1  0  0  0
M  END
> <minimizedAffinity>
-10.93816

$$$$
CHEMBL304552


 35 39  0  0  0  0  0  0  0  0999 V2000
   31.1417   -0.6535   27.3972 C   0  0  0  0  0  0  0  0  0  0  0  0
   29.9449    0.3234   26.4191 S   0  0  0  0  0  0  0  0  0  0  0  0
   28.5368   -0.6219   26.9928 C   0  0  0  0  0  0  0  0  0  0  0  0
   27.3300    0.0375   27.2653 C   0  0  0  0  0  0  0  0  0  0  0  0
   26.1849   -0.6998   27.6005 C   0  0  0  0  0  0  0  0  0  0  0  0
   24.9691   -0.0624   27.8398 O   0  0  0  0  0  0  0  0  0  0  0  0
   26.2554   -2.0931   27.6800 C   0  0  0  0  0  0  0  0  0  0  0  0
   27.4606   -2.7518   27.4211 C   0  0  0  0  0  0  0  0  0  0  0  0
   28.6114   -2.0225   27.0967 C   0  0  0  0  0  0  0  0  0  0  0  0
   29.8175   -2.7155   26.9111 O   0  0  0  0  0  0  0  0  0  0  0  0
   31.1338   -2.1433   26.9567 C   0  0  0  0  0  0  0  0  0  0  0  0
   24.8704    0.9454   27.7697 H   0  0  0  0  0  0  0  0  0  0  0  0
   36.4916    1.3824   27.1363 O   0  0  0  0  0  0  0  0  0  0  0  0
   35.1908    0.8900   27.2038 C   0  0  0  0  0  0  0  0  0  0  0  0
   34.2167    1.4002   26.3405 C   0  0  0  0  0  0  0  0  0  0  0  0
   32.9051    0.9220   26.4002 C   0  0  0  0  0  0  0  0  0  0  0  0
   32.5417   -0.0631   27.3473 C   0  0  0  0  0  0  0  0  0  0  0  0
   33.5346   -0.5800   28.1972 C   0  0  0  0  0  0  0  0  0  0  0  0
   34.8490   -0.1127   28.1225 C   0  0  0  0  0  0  0  0  0  0  0  0
   37.2235    1.0222   27.7400 H   0  0  0  0  0  0  0  0  0  0  0  0
   31.8419   -2.3857   25.6384 C   0  0  0  0  0  0  0  0  0  0  0  0
   31.3820   -1.7531   24.4714 C   0  0  0  0  0  0  0  0  0  0  0  0
   32.0100   -1.9831   23.2467 C   0  0  0  0  0  0  0  0  0  0  0  0
   33.0899   -2.8646   23.1562 C   0  0  0  0  0  0  0  0  0  0  0  0
   33.5533   -3.5054   24.3210 C   0  0  0  0  0  0  0  0  0  0  0  0
   32.9341   -3.2660   25.5512 C   0  0  0  0  0  0  0  0  0  0  0  0
   33.6666   -3.0771   21.8950 O   0  0  0  0  0  0  0  0  0  0  0  0
   33.2564   -4.0778   20.9612 C   0  0  0  0  0  0  0  0  0  0  0  0
   32.2494   -3.5083   19.9540 C   0  0  0  0  0  0  0  0  0  0  0  0
   32.9517   -2.9136   18.7934 N   0  0  0  0  0  0  0  0  0  0  0  0
   32.0304   -2.3593   17.7780 C   0  0  0  0  0  0  0  0  0  0  0  0
   31.3325   -3.4616   16.9705 C   0  0  0  0  0  0  0  0  0  0  0  0
   32.3689   -4.3687   16.3050 C   0  0  0  0  0  0  0  0  0  0  0  0
   33.3388   -4.9370   17.3428 C   0  0  0  0  0  0  0  0  0  0  0  0
   33.9627   -3.8138   18.1911 C   0  0  0  0  0  0  0  0  0  0  0  0
 13 14  1  0  0  0
 14 15  2  0  0  0
 15 16  1  0  0  0
 16 17  2  0  0  0
 17  1  1  0  0  0
  1  2  1  0  0  0
  2  3  1  0  0  0
  3  4  2  0  0  0
  4  5  1  0  0  0
  5  6  1  0  0  0
  5  7  2  0  0  0
  7  8  1  0  0  0
  8  9  2  0  0  0
  9 10  1  0  0  0
 10 11  1  0  0  0
 11 21  1  0  0  0
 21 22  2  0  0  0
 22 23  1  0  0  0
 23 24  2  0  0  0
 24 27  1  0  0  0
 27 28  1  0  0  0
 28 29  1  0  0  0
 29 30  1  0  0  0
 30 31  1  0  0  0
 31 32  1  0  0  0
 32 33  1  0  0  0
 33 34  1  0  0  0
 34 35  1  0  0  0
 24 25  1  0  0  0
 25 26  2  0  0  0
 17 18  1  0  0  0
 18 19  2  0  0  0
 19 14  1  0  0  0
 11  1  1  0  0  0
 26 21  1  0  0  0
  9  3  1  0  0  0
 35 30  1  0  0  0
 13 20  1  0  0  0
  6 12  1  0  0  0
M  END
> <minimizedAffinity>
-10.86568

$$$$
CHEMBL304552


 35 39  0  0  0  0  0  0  0  0999 V2000
   31.2180   -0.8040   27.2777 C   0  0  0  0  0  0  0  0  0  0  0  0
   30.0468    0.1886   26.2846 S   0  0  0  0  0  0  0  0  0  0  0  0
   28.6162   -0.7201   26.8615 C   0  0  0  0  0  0  0  0  0  0  0  0
   27.4228   -0.0321   27.1221 C   0  0  0  0  0  0  0  0  0  0  0  0
   26.2606   -0.7410   27.4596 C   0  0  0  0  0  0  0  0  0  0  0  0
   25.0579   -0.0750   27.6871 O   0  0  0  0  0  0  0  0  0  0  0  0
   26.3005   -2.1346   27.5534 C   0  0  0  0  0  0  0  0  0  0  0  0
   27.4922   -2.8218   27.3064 C   0  0  0  0  0  0  0  0  0  0  0  0
   28.6600   -2.1210   26.9797 C   0  0  0  0  0  0  0  0  0  0  0  0
   29.8514   -2.8417   26.8065 O   0  0  0  0  0  0  0  0  0  0  0  0
   31.1797   -2.2977   26.8521 C   0  0  0  0  0  0  0  0  0  0  0  0
   24.9813    0.9339   27.6065 H   0  0  0  0  0  0  0  0  0  0  0  0
   36.4654    1.4949   27.1572 O   0  0  0  0  0  0  0  0  0  0  0  0
   35.1911    0.9338   27.1824 C   0  0  0  0  0  0  0  0  0  0  0  0
   34.8979   -0.0651   28.1156 C   0  0  0  0  0  0  0  0  0  0  0  0
   33.6263   -0.6434   28.1495 C   0  0  0  0  0  0  0  0  0  0  0  0
   32.6307   -0.2445   27.2280 C   0  0  0  0  0  0  0  0  0  0  0  0
   32.9333    0.7730   26.3069 C   0  0  0  0  0  0  0  0  0  0  0  0
   34.1999    1.3618   26.2877 C   0  0  0  0  0  0  0  0  0  0  0  0
   36.7042    2.2313   26.5009 H   0  0  0  0  0  0  0  0  0  0  0  0
   31.8879   -2.5686   25.5394 C   0  0  0  0  0  0  0  0  0  0  0  0
   33.0172   -3.4038   25.5140 C   0  0  0  0  0  0  0  0  0  0  0  0
   33.6925   -3.6454   24.3170 C   0  0  0  0  0  0  0  0  0  0  0  0
   33.2723   -3.0416   23.1294 C   0  0  0  0  0  0  0  0  0  0  0  0
   32.1438   -2.1999   23.1484 C   0  0  0  0  0  0  0  0  0  0  0  0
   31.4579   -1.9673   24.3441 C   0  0  0  0  0  0  0  0  0  0  0  0
   34.0041   -3.3003   21.9608 O   0  0  0  0  0  0  0  0  0  0  0  0
   34.0496   -2.4497   20.8136 C   0  0  0  0  0  0  0  0  0  0  0  0
   35.4722   -2.3704   20.2457 C   0  0  0  0  0  0  0  0  0  0  0  0
   35.6161   -1.1911   19.3612 N   0  0  0  0  0  0  0  0  0  0  0  0
   34.7287   -1.2391   18.1792 C   0  0  0  0  0  0  0  0  0  0  0  0
   35.2119   -2.2563   17.1371 C   0  0  0  0  0  0  0  0  0  0  0  0
   36.6454   -1.9373   16.7094 C   0  0  0  0  0  0  0  0  0  0  0  0
   37.5720   -1.8690   17.9249 C   0  0  0  0  0  0  0  0  0  0  0  0
   37.0203   -0.9015   18.9879 C   0  0  0  0  0  0  0  0  0  0  0  0
 13 14  1  0  0  0
 14 15  2  0  0  0
 15 16  1  0  0  0
 16 17  2  0  0  0
 17  1  1  0  0  0
  1  2  1  0  0  0
  2  3  1  0  0  0
  3  4  2  0  0  0
  4  5  1  0  0  0
  5  6  1  0  0  0
  5  7  2  0  0  0
  7  8  1  0  0  0
  8  9  2  0  0  0
  9 10  1  0  0  0
 10 11  1  0  0  0
 11 21  1  0  0  0
 21 22  2  0  0  0
 22 23  1  0  0  0
 23 24  2  0  0  0
 24 27  1  0  0  0
 27 28  1  0  0  0
 28 29  1  0  0  0
 29 30  1  0  0  0
 30 31  1  0  0  0
 31 32  1  0  0  0
 32 33  1  0  0  0
 33 34  1  0  0  0
 34 35  1  0  0  0
 24 25  1  0  0  0
 25 26  2  0  0  0
 17 18  1  0  0  0
 18 19  2  0  0  0
 19 14  1  0  0  0
 11  1  1  0  0  0
 26 21  1  0  0  0
  9  3  1  0  0  0
 35 30  1  0  0  0
 13 20  1  0  0  0
  6 12  1  0  0  0
M  END
> <minimizedAffinity>
-10.53452

$$$$
CHEMBL304552


 35 39  0  0  0  0  0  0  0  0999 V2000
   36.7746   -2.1448   17.5492 C   0  0  0  0  0  0  0  0  0  0  0  0
   35.4005   -1.0104   17.1392 S   0  0  0  0  0  0  0  0  0  0  0  0
   36.3914    0.4588   17.3939 C   0  0  0  0  0  0  0  0  0  0  0  0
   36.2273    1.5567   16.5377 C   0  0  0  0  0  0  0  0  0  0  0  0
   36.9071    2.7566   16.7931 C   0  0  0  0  0  0  0  0  0  0  0  0
   36.7280    3.8682   15.9723 O   0  0  0  0  0  0  0  0  0  0  0  0
   37.7630    2.8484   17.8939 C   0  0  0  0  0  0  0  0  0  0  0  0
   37.9378    1.7512   18.7417 C   0  0  0  0  0  0  0  0  0  0  0  0
   37.2716    0.5458   18.4875 C   0  0  0  0  0  0  0  0  0  0  0  0
   37.5262   -0.5532   19.3221 O   0  0  0  0  0  0  0  0  0  0  0  0
   37.2558   -1.9287   19.0104 C   0  0  0  0  0  0  0  0  0  0  0  0
   36.0980    3.8500   15.1766 H   0  0  0  0  0  0  0  0  0  0  0  0
   35.4716   -7.6702   16.7698 O   0  0  0  0  0  0  0  0  0  0  0  0
   35.7903   -6.3273   16.9549 C   0  0  0  0  0  0  0  0  0  0  0  0
   34.7785   -5.3648   16.8881 C   0  0  0  0  0  0  0  0  0  0  0  0
   35.0826   -4.0124   17.0645 C   0  0  0  0  0  0  0  0  0  0  0  0
   36.4162   -3.5989   17.2878 C   0  0  0  0  0  0  0  0  0  0  0  0
   37.4210   -4.5783   17.3702 C   0  0  0  0  0  0  0  0  0  0  0  0
   37.1107   -5.9311   17.2115 C   0  0  0  0  0  0  0  0  0  0  0  0
   36.1817   -8.3930   16.8262 H   0  0  0  0  0  0  0  0  0  0  0  0
   36.3158   -2.5119   20.0470 C   0  0  0  0  0  0  0  0  0  0  0  0
   36.7671   -3.5264   20.9076 C   0  0  0  0  0  0  0  0  0  0  0  0
   35.9074   -4.0881   21.8522 C   0  0  0  0  0  0  0  0  0  0  0  0
   34.5777   -3.6690   21.9413 C   0  0  0  0  0  0  0  0  0  0  0  0
   34.1175   -2.6558   21.0789 C   0  0  0  0  0  0  0  0  0  0  0  0
   34.9809   -2.0823   20.1409 C   0  0  0  0  0  0  0  0  0  0  0  0
   33.7518   -4.2864   22.8925 O   0  0  0  0  0  0  0  0  0  0  0  0
   32.6818   -3.6473   23.5913 C   0  0  0  0  0  0  0  0  0  0  0  0
   33.1555   -3.1119   24.9484 C   0  0  0  0  0  0  0  0  0  0  0  0
   32.7008   -1.7163   25.1464 N   0  0  0  0  0  0  0  0  0  0  0  0
   33.2729   -1.0842   26.3548 C   0  0  0  0  0  0  0  0  0  0  0  0
   32.6371   -1.6234   27.6429 C   0  0  0  0  0  0  0  0  0  0  0  0
   31.1209   -1.4244   27.6096 C   0  0  0  0  0  0  0  0  0  0  0  0
   30.5174   -2.0603   26.3558 C   0  0  0  0  0  0  0  0  0  0  0  0
   31.2285   -1.5612   25.0848 C   0  0  0  0  0  0  0  0  0  0  0  0
 13 14  1  0  0  0
 14 15  2  0  0  0
 15 16  1  0  0  0
 16 17  2  0  0  0
 17  1  1  0  0  0
  1  2  1  0  0  0
  2  3  1  0  0  0
  3  4  2  0  0  0
  4  5  1  0  0  0
  5  6  1  0  0  0
  5  7  2  0  0  0
  7  8  1  0  0  0
  8  9  2  0  0  0
  9 10  1  0  0  0
 10 11  1  0  0  0
 11 21  1  0  0  0
 21 22  2  0  0  0
 22 23  1  0  0  0
 23 24  2  0  0  0
 24 27  1  0  0  0
 27 28  1  0  0  0
 28 29  1  0  0  0
 29 30  1  0  0  0
 30 31  1  0  0  0
 31 32  1  0  0  0
 32 33  1  0  0  0
 33 34  1  0  0  0
 34 35  1  0  0  0
 24 25  1  0  0  0
 25 26  2  0  0  0
 17 18  1  0  0  0
 18 19  2  0  0  0
 19 14  1  0  0  0
 11  1  1  0  0  0
 26 21  1  0  0  0
  9  3  1  0  0  0
 35 30  1  0  0  0
 13 20  1  0  0  0
  6 12  1  0  0  0
M  END
> <minimizedAffinity>
-9.21535

$$$$
CHEMBL304552


 35 39  0  0  0  0  0  0  0  0999 V2000
   36.6146   -2.1789   17.5963 C   0  0  0  0  0  0  0  0  0  0  0  0
   35.2763   -0.9899   17.2244 S   0  0  0  0  0  0  0  0  0  0  0  0
   36.3235    0.4388   17.4843 C   0  0  0  0  0  0  0  0  0  0  0  0
   36.1863    1.5545   16.6466 C   0  0  0  0  0  0  0  0  0  0  0  0
   36.9129    2.7252   16.9083 C   0  0  0  0  0  0  0  0  0  0  0  0
   36.7616    3.8546   16.1063 O   0  0  0  0  0  0  0  0  0  0  0  0
   37.7883    2.7699   17.9966 C   0  0  0  0  0  0  0  0  0  0  0  0
   37.9362    1.6546   18.8258 C   0  0  0  0  0  0  0  0  0  0  0  0
   37.2229    0.4778   18.5650 C   0  0  0  0  0  0  0  0  0  0  0  0
   37.4503   -0.6418   19.3797 O   0  0  0  0  0  0  0  0  0  0  0  0
   37.1256   -2.0019   19.0527 C   0  0  0  0  0  0  0  0  0  0  0  0
   36.1193    3.8709   15.3205 H   0  0  0  0  0  0  0  0  0  0  0  0
   35.0253   -7.5406   16.3467 O   0  0  0  0  0  0  0  0  0  0  0  0
   35.4091   -6.2378   16.6545 C   0  0  0  0  0  0  0  0  0  0  0  0
   36.7235   -5.9852   17.0581 C   0  0  0  0  0  0  0  0  0  0  0  0
   37.1229   -4.6848   17.3773 C   0  0  0  0  0  0  0  0  0  0  0  0
   36.1999   -3.6152   17.3199 C   0  0  0  0  0  0  0  0  0  0  0  0
   34.8863   -3.8800   16.8957 C   0  0  0  0  0  0  0  0  0  0  0  0
   34.4953   -5.1784   16.5597 C   0  0  0  0  0  0  0  0  0  0  0  0
   34.0823   -7.7532   16.0376 H   0  0  0  0  0  0  0  0  0  0  0  0
   36.1810   -2.5662   20.0956 C   0  0  0  0  0  0  0  0  0  0  0  0
   36.6231   -3.5775   20.9648 C   0  0  0  0  0  0  0  0  0  0  0  0
   35.7589   -4.1219   21.9154 C   0  0  0  0  0  0  0  0  0  0  0  0
   34.4337   -3.6886   22.0022 C   0  0  0  0  0  0  0  0  0  0  0  0
   33.9826   -2.6786   21.1312 C   0  0  0  0  0  0  0  0  0  0  0  0
   34.8506   -2.1223   20.1871 C   0  0  0  0  0  0  0  0  0  0  0  0
   33.6026   -4.2890   22.9599 O   0  0  0  0  0  0  0  0  0  0  0  0
   32.6614   -3.5966   23.7822 C   0  0  0  0  0  0  0  0  0  0  0  0
   33.2785   -3.2385   25.1400 C   0  0  0  0  0  0  0  0  0  0  0  0
   32.2816   -2.5667   26.0053 N   0  0  0  0  0  0  0  0  0  0  0  0
   31.5245   -1.5066   25.3054 C   0  0  0  0  0  0  0  0  0  0  0  0
   32.3748   -0.2514   25.0697 C   0  0  0  0  0  0  0  0  0  0  0  0
   32.9199    0.2771   26.3975 C   0  0  0  0  0  0  0  0  0  0  0  0
   33.6926   -0.8148   27.1400 C   0  0  0  0  0  0  0  0  0  0  0  0
   32.8427   -2.0896   27.2909 C   0  0  0  0  0  0  0  0  0  0  0  0
 13 14  1  0  0  0
 14 15  2  0  0  0
 15 16  1  0  0  0
 16 17  2  0  0  0
 17  1  1  0  0  0
  1  2  1  0  0  0
  2  3  1  0  0  0
  3  4  2  0  0  0
  4  5  1  0  0  0
  5  6  1  0  0  0
  5  7  2  0  0  0
  7  8  1  0  0  0
  8  9  2  0  0  0
  9 10  1  0  0  0
 10 11  1  0  0  0
 11 21  1  0  0  0
 21 22  2  0  0  0
 22 23  1  0  0  0
 23 24  2  0  0  0
 24 27  1  0  0  0
 27 28  1  0  0  0
 28 29  1  0  0  0
 29 30  1  0  0  0
 30 31  1  0  0  0
 31 32  1  0  0  0
 32 33  1  0  0  0
 33 34  1  0  0  0
 34 35  1  0  0  0
 24 25  1  0  0  0
 25 26  2  0  0  0
 17 18  1  0  0  0
 18 19  2  0  0  0
 19 14  1  0  0  0
 11  1  1  0  0  0
 26 21  1  0  0  0
  9  3  1  0  0  0
 35 30  1  0  0  0
 13 20  1  0  0  0
  6 12  1  0  0  0
M  END
> <minimizedAffinity>
-9.20340

$$$$
CHEMBL304552


 35 39  0  0  0  0  0  0  0  0999 V2000
   35.0212   -2.5340   16.8872 C   0  0  0  0  0  0  0  0  0  0  0  0
   34.6914   -0.7861   17.3109 S   0  0  0  0  0  0  0  0  0  0  0  0
   36.3810   -0.2786   17.0060 C   0  0  0  0  0  0  0  0  0  0  0  0
   36.6285    0.9586   16.3949 C   0  0  0  0  0  0  0  0  0  0  0  0
   37.9440    1.4249   16.2563 C   0  0  0  0  0  0  0  0  0  0  0  0
   38.2050    2.6679   15.6832 O   0  0  0  0  0  0  0  0  0  0  0  0
   39.0088    0.6436   16.7128 C   0  0  0  0  0  0  0  0  0  0  0  0
   38.7653   -0.5958   17.3110 C   0  0  0  0  0  0  0  0  0  0  0  0
   37.4555   -1.0739   17.4432 C   0  0  0  0  0  0  0  0  0  0  0  0
   37.2572   -2.3523   17.9867 O   0  0  0  0  0  0  0  0  0  0  0  0
   36.0711   -3.1506   17.8522 C   0  0  0  0  0  0  0  0  0  0  0  0
   37.4589    3.2756   15.3601 H   0  0  0  0  0  0  0  0  0  0  0  0
   30.3127   -5.7995   16.8555 O   0  0  0  0  0  0  0  0  0  0  0  0
   31.4565   -5.0052   16.8585 C   0  0  0  0  0  0  0  0  0  0  0  0
   31.4003   -3.7206   17.4074 C   0  0  0  0  0  0  0  0  0  0  0  0
   32.5372   -2.9082   17.4119 C   0  0  0  0  0  0  0  0  0  0  0  0
   33.7483   -3.3638   16.8416 C   0  0  0  0  0  0  0  0  0  0  0  0
   33.7958   -4.6636   16.3091 C   0  0  0  0  0  0  0  0  0  0  0  0
   32.6622   -5.4800   16.3227 C   0  0  0  0  0  0  0  0  0  0  0  0
   30.3258   -6.7410   16.4769 H   0  0  0  0  0  0  0  0  0  0  0  0
   35.5129   -3.4712   19.2247 C   0  0  0  0  0  0  0  0  0  0  0  0
   35.0787   -2.4310   20.0631 C   0  0  0  0  0  0  0  0  0  0  0  0
   34.5827   -2.7088   21.3374 C   0  0  0  0  0  0  0  0  0  0  0  0
   34.5329   -4.0224   21.8100 C   0  0  0  0  0  0  0  0  0  0  0  0
   34.9706   -5.0695   20.9768 C   0  0  0  0  0  0  0  0  0  0  0  0
   35.4552   -4.7945   19.6947 C   0  0  0  0  0  0  0  0  0  0  0  0
   34.0484   -4.2405   23.1085 O   0  0  0  0  0  0  0  0  0  0  0  0
   32.8293   -3.7095   23.6314 C   0  0  0  0  0  0  0  0  0  0  0  0
   33.0150   -3.2303   25.0766 C   0  0  0  0  0  0  0  0  0  0  0  0
   32.6016   -1.8147   25.2141 N   0  0  0  0  0  0  0  0  0  0  0  0
   33.2791   -1.1168   26.3282 C   0  0  0  0  0  0  0  0  0  0  0  0
   32.7386   -1.5547   27.6958 C   0  0  0  0  0  0  0  0  0  0  0  0
   31.2282   -1.3242   27.7680 C   0  0  0  0  0  0  0  0  0  0  0  0
   30.5159   -2.0282   26.6114 C   0  0  0  0  0  0  0  0  0  0  0  0
   31.1321   -1.6308   25.2576 C   0  0  0  0  0  0  0  0  0  0  0  0
 13 14  1  0  0  0
 14 15  2  0  0  0
 15 16  1  0  0  0
 16 17  2  0  0  0
 17  1  1  0  0  0
  1  2  1  0  0  0
  2  3  1  0  0  0
  3  4  2  0  0  0
  4  5  1  0  0  0
  5  6  1  0  0  0
  5  7  2  0  0  0
  7  8  1  0  0  0
  8  9  2  0  0  0
  9 10  1  0  0  0
 10 11  1  0  0  0
 11 21  1  0  0  0
 21 22  2  0  0  0
 22 23  1  0  0  0
 23 24  2  0  0  0
 24 27  1  0  0  0
 27 28  1  0  0  0
 28 29  1  0  0  0
 29 30  1  0  0  0
 30 31  1  0  0  0
 31 32  1  0  0  0
 32 33  1  0  0  0
 33 34  1  0  0  0
 34 35  1  0  0  0
 24 25  1  0  0  0
 25 26  2  0  0  0
 17 18  1  0  0  0
 18 19  2  0  0  0
 19 14  1  0  0  0
 11  1  1  0  0  0
 26 21  1  0  0  0
  9  3  1  0  0  0
 35 30  1  0  0  0
 13 20  1  0  0  0
  6 12  1  0  0  0
M  END
> <minimizedAffinity>
-8.93881

$$$$
CHEMBL304552


 35 39  0  0  0  0  0  0  0  0999 V2000
   34.7343   -3.8161   18.7296 C   0  0  0  0  0  0  0  0  0  0  0  0
   33.8016   -3.2936   20.2129 S   0  0  0  0  0  0  0  0  0  0  0  0
   32.2723   -3.0728   19.3087 C   0  0  0  0  0  0  0  0  0  0  0  0
   31.0597   -3.4452   19.9057 C   0  0  0  0  0  0  0  0  0  0  0  0
   29.8443   -3.1705   19.2619 C   0  0  0  0  0  0  0  0  0  0  0  0
   28.6290   -3.5022   19.8575 O   0  0  0  0  0  0  0  0  0  0  0  0
   29.8466   -2.5405   18.0146 C   0  0  0  0  0  0  0  0  0  0  0  0
   31.0548   -2.1796   17.4118 C   0  0  0  0  0  0  0  0  0  0  0  0
   32.2733   -2.4603   18.0425 C   0  0  0  0  0  0  0  0  0  0  0  0
   33.4659   -2.1442   17.3741 O   0  0  0  0  0  0  0  0  0  0  0  0
   34.7641   -2.6846   17.6655 C   0  0  0  0  0  0  0  0  0  0  0  0
   28.5832   -3.9395   20.7724 H   0  0  0  0  0  0  0  0  0  0  0  0
   39.9266   -5.7673   20.1676 O   0  0  0  0  0  0  0  0  0  0  0  0
   38.6665   -5.2887   19.8178 C   0  0  0  0  0  0  0  0  0  0  0  0
   38.1545   -5.5650   18.5465 C   0  0  0  0  0  0  0  0  0  0  0  0
   36.8948   -5.0861   18.1772 C   0  0  0  0  0  0  0  0  0  0  0  0
   36.1347   -4.2984   19.0723 C   0  0  0  0  0  0  0  0  0  0  0  0
   36.6536   -4.0430   20.3533 C   0  0  0  0  0  0  0  0  0  0  0  0
   37.9055   -4.5386   20.7257 C   0  0  0  0  0  0  0  0  0  0  0  0
   40.3192   -5.5950   21.0874 H   0  0  0  0  0  0  0  0  0  0  0  0
   35.7203   -1.5595   18.0088 C   0  0  0  0  0  0  0  0  0  0  0  0
   35.3340   -0.5701   18.9283 C   0  0  0  0  0  0  0  0  0  0  0  0
   36.1948    0.4836   19.2381 C   0  0  0  0  0  0  0  0  0  0  0  0
   37.4440    0.5859   18.6210 C   0  0  0  0  0  0  0  0  0  0  0  0
   37.8358   -0.3998   17.6952 C   0  0  0  0  0  0  0  0  0  0  0  0
   36.9804   -1.4635   17.3936 C   0  0  0  0  0  0  0  0  0  0  0  0
   38.2576    1.6798   18.9518 O   0  0  0  0  0  0  0  0  0  0  0  0
   38.2007    2.9650   18.3300 C   0  0  0  0  0  0  0  0  0  0  0  0
   38.1965    2.8352   16.8017 C   0  0  0  0  0  0  0  0  0  0  0  0
   37.0449    3.5621   16.2193 N   0  0  0  0  0  0  0  0  0  0  0  0
   35.7446    2.9211   16.5118 C   0  0  0  0  0  0  0  0  0  0  0  0
   35.5346    1.6429   15.6894 C   0  0  0  0  0  0  0  0  0  0  0  0
   35.6491    1.9487   14.1951 C   0  0  0  0  0  0  0  0  0  0  0  0
   36.9840    2.6268   13.8806 C   0  0  0  0  0  0  0  0  0  0  0  0
   37.2035    3.8595   14.7765 C   0  0  0  0  0  0  0  0  0  0  0  0
 13 14  1  0  0  0
 14 15  2  0  0  0
 15 16  1  0  0  0
 16 17  2  0  0  0
 17  1  1  0  0  0
  1  2  1  0  0  0
  2  3  1  0  0  0
  3  4  2  0  0  0
  4  5  1  0  0  0
  5  6  1  0  0  0
  5  7  2  0  0  0
  7  8  1  0  0  0
  8  9  2  0  0  0
  9 10  1  0  0  0
 10 11  1  0  0  0
 11 21  1  0  0  0
 21 22  2  0  0  0
 22 23  1  0  0  0
 23 24  2  0  0  0
 24 27  1  0  0  0
 27 28  1  0  0  0
 28 29  1  0  0  0
 29 30  1  0  0  0
 30 31  1  0  0  0
 31 32  1  0  0  0
 32 33  1  0  0  0
 33 34  1  0  0  0
 34 35  1  0  0  0
 24 25  1  0  0  0
 25 26  2  0  0  0
 17 18  1  0  0  0
 18 19  2  0  0  0
 19 14  1  0  0  0
 11  1  1  0  0  0
 26 21  1  0  0  0
  9  3  1  0  0  0
 35 30  1  0  0  0
 13 20  1  0  0  0
  6 12  1  0  0  0
M  END
> <minimizedAffinity>
-8.92473

$$$$
CHEMBL304552


 35 39  0  0  0  0  0  0  0  0999 V2000
   39.4070   -0.7096   14.8504 C   0  0  0  0  0  0  0  0  0  0  0  0
   40.2793   -2.2843   15.1705 S   0  0  0  0  0  0  0  0  0  0  0  0
   40.6276   -2.5710   13.4380 C   0  0  0  0  0  0  0  0  0  0  0  0
   41.8630   -3.1193   13.0657 C   0  0  0  0  0  0  0  0  0  0  0  0
   42.1073   -3.4607   11.7275 C   0  0  0  0  0  0  0  0  0  0  0  0
   43.3165   -4.0391   11.3467 O   0  0  0  0  0  0  0  0  0  0  0  0
   41.1217   -3.2355   10.7629 C   0  0  0  0  0  0  0  0  0  0  0  0
   39.8939   -2.6774   11.1295 C   0  0  0  0  0  0  0  0  0  0  0  0
   39.6459   -2.3232   12.4617 C   0  0  0  0  0  0  0  0  0  0  0  0
   38.4277   -1.7027   12.7776 O   0  0  0  0  0  0  0  0  0  0  0  0
   38.1528   -0.9402   13.9631 C   0  0  0  0  0  0  0  0  0  0  0  0
   44.0490   -4.2402   12.0200 H   0  0  0  0  0  0  0  0  0  0  0  0
   37.8819    2.0764   19.6197 O   0  0  0  0  0  0  0  0  0  0  0  0
   38.2567    1.4017   18.4606 C   0  0  0  0  0  0  0  0  0  0  0  0
   38.6056    0.0499   18.5342 C   0  0  0  0  0  0  0  0  0  0  0  0
   38.9908   -0.6399   17.3817 C   0  0  0  0  0  0  0  0  0  0  0  0
   39.0560    0.0239   16.1349 C   0  0  0  0  0  0  0  0  0  0  0  0
   38.6858    1.3783   16.0720 C   0  0  0  0  0  0  0  0  0  0  0  0
   38.2835    2.0602   17.2230 C   0  0  0  0  0  0  0  0  0  0  0  0
   37.6100    3.0539   19.5960 H   0  0  0  0  0  0  0  0  0  0  0  0
   36.9907   -1.5619   14.7122 C   0  0  0  0  0  0  0  0  0  0  0  0
   36.1443   -0.7510   15.4866 C   0  0  0  0  0  0  0  0  0  0  0  0
   35.0836   -1.3117   16.1989 C   0  0  0  0  0  0  0  0  0  0  0  0
   34.8606   -2.6906   16.1740 C   0  0  0  0  0  0  0  0  0  0  0  0
   35.7077   -3.5097   15.4036 C   0  0  0  0  0  0  0  0  0  0  0  0
   36.7627   -2.9483   14.6784 C   0  0  0  0  0  0  0  0  0  0  0  0
   33.7948   -3.2022   16.9294 O   0  0  0  0  0  0  0  0  0  0  0  0
   33.9197   -4.1497   17.9915 C   0  0  0  0  0  0  0  0  0  0  0  0
   34.6674   -3.5411   19.1845 C   0  0  0  0  0  0  0  0  0  0  0  0
   35.6303   -4.5149   19.7488 N   0  0  0  0  0  0  0  0  0  0  0  0
   36.2966   -4.0290   20.9764 C   0  0  0  0  0  0  0  0  0  0  0  0
   37.3467   -2.9519   20.6740 C   0  0  0  0  0  0  0  0  0  0  0  0
   38.3844   -3.4855   19.6850 C   0  0  0  0  0  0  0  0  0  0  0  0
   37.7070   -4.0062   18.4159 C   0  0  0  0  0  0  0  0  0  0  0  0
   36.6039   -5.0251   18.7553 C   0  0  0  0  0  0  0  0  0  0  0  0
 13 14  1  0  0  0
 14 15  2  0  0  0
 15 16  1  0  0  0
 16 17  2  0  0  0
 17  1  1  0  0  0
  1  2  1  0  0  0
  2  3  1  0  0  0
  3  4  2  0  0  0
  4  5  1  0  0  0
  5  6  1  0  0  0
  5  7  2  0  0  0
  7  8  1  0  0  0
  8  9  2  0  0  0
  9 10  1  0  0  0
 10 11  1  0  0  0
 11 21  1  0  0  0
 21 22  2  0  0  0
 22 23  1  0  0  0
 23 24  2  0  0  0
 24 27  1  0  0  0
 27 28  1  0  0  0
 28 29  1  0  0  0
 29 30  1  0  0  0
 30 31  1  0  0  0
 31 32  1  0  0  0
 32 33  1  0  0  0
 33 34  1  0  0  0
 34 35  1  0  0  0
 24 25  1  0  0  0
 25 26  2  0  0  0
 17 18  1  0  0  0
 18 19  2  0  0  0
 19 14  1  0  0  0
 11  1  1  0  0  0
 26 21  1  0  0  0
  9  3  1  0  0  0
 35 30  1  0  0  0
 13 20  1  0  0  0
  6 12  1  0  0  0
M  END
> <minimizedAffinity>
-8.82407

$$$$
CHEMBL304552


 35 39  0  0  0  0  0  0  0  0999 V2000
   38.2986    1.0704   16.1044 C   0  0  0  0  0  0  0  0  0  0  0  0
   36.9196    2.2031   15.7065 S   0  0  0  0  0  0  0  0  0  0  0  0
   37.6960    3.6056   16.5036 C   0  0  0  0  0  0  0  0  0  0  0  0
   37.5865    4.8761   15.9211 C   0  0  0  0  0  0  0  0  0  0  0  0
   38.0852    6.0030   16.5906 C   0  0  0  0  0  0  0  0  0  0  0  0
   37.9531    7.2771   16.0418 O   0  0  0  0  0  0  0  0  0  0  0  0
   38.7083    5.8531   17.8323 C   0  0  0  0  0  0  0  0  0  0  0  0
   38.8298    4.5860   18.4093 C   0  0  0  0  0  0  0  0  0  0  0  0
   38.3446    3.4540   17.7424 C   0  0  0  0  0  0  0  0  0  0  0  0
   38.5469    2.1925   18.3227 O   0  0  0  0  0  0  0  0  0  0  0  0
   38.4761    0.9304   17.6414 C   0  0  0  0  0  0  0  0  0  0  0  0
   37.4868    7.4314   15.1535 H   0  0  0  0  0  0  0  0  0  0  0  0
   37.7112   -3.9394   13.3856 O   0  0  0  0  0  0  0  0  0  0  0  0
   37.8507   -2.7233   14.0496 C   0  0  0  0  0  0  0  0  0  0  0  0
   39.0130   -2.4703   14.7842 C   0  0  0  0  0  0  0  0  0  0  0  0
   39.1657   -1.2580   15.4621 C   0  0  0  0  0  0  0  0  0  0  0  0
   38.1402   -0.2848   15.4340 C   0  0  0  0  0  0  0  0  0  0  0  0
   36.9846   -0.5447   14.6773 C   0  0  0  0  0  0  0  0  0  0  0  0
   36.8431   -1.7502   13.9859 C   0  0  0  0  0  0  0  0  0  0  0  0
   36.8854   -4.1465   12.8332 H   0  0  0  0  0  0  0  0  0  0  0  0
   37.4220    0.0569   18.2927 C   0  0  0  0  0  0  0  0  0  0  0  0
   36.0875    0.4929   18.3444 C   0  0  0  0  0  0  0  0  0  0  0  0
   35.1100   -0.2901   18.9595 C   0  0  0  0  0  0  0  0  0  0  0  0
   35.4461   -1.5080   19.5556 C   0  0  0  0  0  0  0  0  0  0  0  0
   36.7824   -1.9490   19.5114 C   0  0  0  0  0  0  0  0  0  0  0  0
   37.7607   -1.1724   18.8838 C   0  0  0  0  0  0  0  0  0  0  0  0
   34.4272   -2.2415   20.1818 O   0  0  0  0  0  0  0  0  0  0  0  0
   34.2337   -3.6517   20.0576 C   0  0  0  0  0  0  0  0  0  0  0  0
   33.2253   -3.9713   18.9469 C   0  0  0  0  0  0  0  0  0  0  0  0
   33.7675   -5.0006   18.0302 N   0  0  0  0  0  0  0  0  0  0  0  0
   35.1081   -4.6633   17.5050 C   0  0  0  0  0  0  0  0  0  0  0  0
   35.0502   -3.5512   16.4494 C   0  0  0  0  0  0  0  0  0  0  0  0
   34.1199   -3.9547   15.3043 C   0  0  0  0  0  0  0  0  0  0  0  0
   32.7329   -4.3217   15.8355 C   0  0  0  0  0  0  0  0  0  0  0  0
   32.8287   -5.3808   16.9488 C   0  0  0  0  0  0  0  0  0  0  0  0
 13 14  1  0  0  0
 14 15  2  0  0  0
 15 16  1  0  0  0
 16 17  2  0  0  0
 17  1  1  0  0  0
  1  2  1  0  0  0
  2  3  1  0  0  0
  3  4  2  0  0  0
  4  5  1  0  0  0
  5  6  1  0  0  0
  5  7  2  0  0  0
  7  8  1  0  0  0
  8  9  2  0  0  0
  9 10  1  0  0  0
 10 11  1  0  0  0
 11 21  1  0  0  0
 21 22  2  0  0  0
 22 23  1  0  0  0
 23 24  2  0  0  0
 24 27  1  0  0  0
 27 28  1  0  0  0
 28 29  1  0  0  0
 29 30  1  0  0  0
 30 31  1  0  0  0
 31 32  1  0  0  0
 32 33  1  0  0  0
 33 34  1  0  0  0
 34 35  1  0  0  0
 24 25  1  0  0  0
 25 26  2  0  0  0
 17 18  1  0  0  0
 18 19  2  0  0  0
 19 14  1  0  0  0
 11  1  1  0  0  0
 26 21  1  0  0  0
  9  3  1  0  0  0
 35 30  1  0  0  0
 13 20  1  0  0  0
  6 12  1  0  0  0
M  END
> <minimizedAffinity>
-8.69752

$$$$
CHEMBL304552


 35 39  0  0  0  0  0  0  0  0999 V2000
   31.2171   -0.5453   27.6988 C   0  0  0  0  0  0  0  0  0  0  0  0
   30.0570    0.3749   26.6314 S   0  0  0  0  0  0  0  0  0  0  0  0
   28.6316   -0.5711   27.1670 C   0  0  0  0  0  0  0  0  0  0  0  0
   27.4053    0.0825   27.3292 C   0  0  0  0  0  0  0  0  0  0  0  0
   26.2499   -0.6489   27.6370 C   0  0  0  0  0  0  0  0  0  0  0  0
   25.0192   -0.0076   27.7737 O   0  0  0  0  0  0  0  0  0  0  0  0
   26.3288   -2.0369   27.7930 C   0  0  0  0  0  0  0  0  0  0  0  0
   27.5580   -2.6905   27.6615 C   0  0  0  0  0  0  0  0  0  0  0  0
   28.7192   -1.9625   27.3744 C   0  0  0  0  0  0  0  0  0  0  0  0
   29.9450   -2.6457   27.3516 O   0  0  0  0  0  0  0  0  0  0  0  0
   31.2451   -2.0431   27.3007 C   0  0  0  0  0  0  0  0  0  0  0  0
   24.9216    0.9892   27.6164 H   0  0  0  0  0  0  0  0  0  0  0  0
   36.4931    1.6872   27.6726 O   0  0  0  0  0  0  0  0  0  0  0  0
   35.2110    1.1451   27.6827 C   0  0  0  0  0  0  0  0  0  0  0  0
   34.8223    0.2469   28.6868 C   0  0  0  0  0  0  0  0  0  0  0  0
   33.5309   -0.2894   28.6874 C   0  0  0  0  0  0  0  0  0  0  0  0
   32.6039    0.0753   27.6925 C   0  0  0  0  0  0  0  0  0  0  0  0
   33.0140    0.9620   26.6750 C   0  0  0  0  0  0  0  0  0  0  0  0
   34.3056    1.4978   26.6779 C   0  0  0  0  0  0  0  0  0  0  0  0
   37.1714    1.4451   28.3810 H   0  0  0  0  0  0  0  0  0  0  0  0
   31.8840   -2.3047   25.9491 C   0  0  0  0  0  0  0  0  0  0  0  0
   31.3619   -1.6880   24.7978 C   0  0  0  0  0  0  0  0  0  0  0  0
   31.9204   -1.9390   23.5422 C   0  0  0  0  0  0  0  0  0  0  0  0
   33.0213   -2.8111   23.4149 C   0  0  0  0  0  0  0  0  0  0  0  0
   33.5393   -3.4271   24.5609 C   0  0  0  0  0  0  0  0  0  0  0  0
   32.9819   -3.1755   25.8173 C   0  0  0  0  0  0  0  0  0  0  0  0
   33.6255   -3.1005   22.1794 O   0  0  0  0  0  0  0  0  0  0  0  0
   33.3124   -4.2149   21.3427 C   0  0  0  0  0  0  0  0  0  0  0  0
   33.7267   -3.9399   19.8940 C   0  0  0  0  0  0  0  0  0  0  0  0
   32.5927   -3.3582   19.1399 N   0  0  0  0  0  0  0  0  0  0  0  0
   32.4901   -3.9527   17.7907 C   0  0  0  0  0  0  0  0  0  0  0  0
   31.3912   -3.2704   16.9508 C   0  0  0  0  0  0  0  0  0  0  0  0
   30.5302   -2.3096   17.7772 C   0  0  0  0  0  0  0  0  0  0  0  0
   30.1189   -2.9520   19.1055 C   0  0  0  0  0  0  0  0  0  0  0  0
   31.3230   -3.5387   19.8753 C   0  0  0  0  0  0  0  0  0  0  0  0
 13 14  1  0  0  0
 14 15  2  0  0  0
 15 16  1  0  0  0
 16 17  2  0  0  0
 17  1  1  0  0  0
  1  2  1  0  0  0
  2  3  1  0  0  0
  3  4  2  0  0  0
  4  5  1  0  0  0
  5  6  1  0  0  0
  5  7  2  0  0  0
  7  8  1  0  0  0
  8  9  2  0  0  0
  9 10  1  0  0  0
 10 11  1  0  0  0
 11 21  1  0  0  0
 21 22  2  0  0  0
 22 23  1  0  0  0
 23 24  2  0  0  0
 24 27  1  0  0  0
 27 28  1  0  0  0
 28 29  1  0  0  0
 29 30  1  0  0  0
 30 31  1  0  0  0
 31 32  1  0  0  0
 32 33  1  0  0  0
 33 34  1  0  0  0
 34 35  1  0  0  0
 24 25  1  0  0  0
 25 26  2  0  0  0
 17 18  1  0  0  0
 18 19  2  0  0  0
 19 14  1  0  0  0
 11  1  1  0  0  0
 26 21  1  0  0  0
  9  3  1  0  0  0
 35 30  1  0  0  0
 13 20  1  0  0  0
  6 12  1  0  0  0
M  END
> <minimizedAffinity>
-11.34243

$$$$
CHEMBL304552


 35 39  0  0  0  0  0  0  0  0999 V2000
   31.2877   -0.7107   27.6040 C   0  0  0  0  0  0  0  0  0  0  0  0
   30.1475    0.3001   26.5989 S   0  0  0  0  0  0  0  0  0  0  0  0
   28.7000   -0.6377   27.0877 C   0  0  0  0  0  0  0  0  0  0  0  0
   27.4923    0.0373   27.2951 C   0  0  0  0  0  0  0  0  0  0  0  0
   26.3193   -0.6802   27.5672 C   0  0  0  0  0  0  0  0  0  0  0  0
   25.1068   -0.0159   27.7485 O   0  0  0  0  0  0  0  0  0  0  0  0
   26.3621   -2.0765   27.6420 C   0  0  0  0  0  0  0  0  0  0  0  0
   27.5728   -2.7533   27.4652 C   0  0  0  0  0  0  0  0  0  0  0  0
   28.7516   -2.0407   27.2135 C   0  0  0  0  0  0  0  0  0  0  0  0
   29.9587   -2.7533   27.1435 O   0  0  0  0  0  0  0  0  0  0  0  0
   31.2741   -2.1830   27.1195 C   0  0  0  0  0  0  0  0  0  0  0  0
   25.0349    0.9906   27.6500 H   0  0  0  0  0  0  0  0  0  0  0  0
   36.5309    1.5967   27.6865 O   0  0  0  0  0  0  0  0  0  0  0  0
   35.2571    1.0357   27.6626 C   0  0  0  0  0  0  0  0  0  0  0  0
   34.3437    1.3781   26.6554 C   0  0  0  0  0  0  0  0  0  0  0  0
   33.0676    0.8064   26.6411 C   0  0  0  0  0  0  0  0  0  0  0  0
   32.6905   -0.1274   27.6250 C   0  0  0  0  0  0  0  0  0  0  0  0
   33.6102   -0.4464   28.6458 C   0  0  0  0  0  0  0  0  0  0  0  0
   34.8859    0.1259   28.6567 C   0  0  0  0  0  0  0  0  0  0  0  0
   36.8247    2.2628   26.9860 H   0  0  0  0  0  0  0  0  0  0  0  0
   31.8994   -2.3823   25.7510 C   0  0  0  0  0  0  0  0  0  0  0  0
   31.3580   -1.7239   24.6323 C   0  0  0  0  0  0  0  0  0  0  0  0
   31.9040   -1.9174   23.3611 C   0  0  0  0  0  0  0  0  0  0  0  0
   33.0116   -2.7724   23.1853 C   0  0  0  0  0  0  0  0  0  0  0  0
   33.5489   -3.4298   24.2988 C   0  0  0  0  0  0  0  0  0  0  0  0
   33.0040   -3.2359   25.5708 C   0  0  0  0  0  0  0  0  0  0  0  0
   33.6038   -3.0046   21.9320 O   0  0  0  0  0  0  0  0  0  0  0  0
   34.8036   -3.7455   21.7050 C   0  0  0  0  0  0  0  0  0  0  0  0
   35.8400   -2.8895   20.9707 C   0  0  0  0  0  0  0  0  0  0  0  0
   35.2509   -2.3205   19.7369 N   0  0  0  0  0  0  0  0  0  0  0  0
   35.9527   -1.0839   19.3335 C   0  0  0  0  0  0  0  0  0  0  0  0
   35.2735   -0.4143   18.1215 C   0  0  0  0  0  0  0  0  0  0  0  0
   34.1880   -1.2951   17.4942 C   0  0  0  0  0  0  0  0  0  0  0  0
   34.6826   -2.7356   17.3305 C   0  0  0  0  0  0  0  0  0  0  0  0
   35.2801   -3.3065   18.6358 C   0  0  0  0  0  0  0  0  0  0  0  0
 13 14  1  0  0  0
 14 15  2  0  0  0
 15 16  1  0  0  0
 16 17  2  0  0  0
 17  1  1  0  0  0
  1  2  1  0  0  0
  2  3  1  0  0  0
  3  4  2  0  0  0
  4  5  1  0  0  0
  5  6  1  0  0  0
  5  7  2  0  0  0
  7  8  1  0  0  0
  8  9  2  0  0  0
  9 10  1  0  0  0
 10 11  1  0  0  0
 11 21  1  0  0  0
 21 22  2  0  0  0
 22 23  1  0  0  0
 23 24  2  0  0  0
 24 27  1  0  0  0
 27 28  1  0  0  0
 28 29  1  0  0  0
 29 30  1  0  0  0
 30 31  1  0  0  0
 31 32  1  0  0  0
 32 33  1  0  0  0
 33 34  1  0  0  0
 34 35  1  0  0  0
 24 25  1  0  0  0
 25 26  2  0  0  0
 17 18  1  0  0  0
 18 19  2  0  0  0
 19 14  1  0  0  0
 11  1  1  0  0  0
 26 21  1  0  0  0
  9  3  1  0  0  0
 35 30  1  0  0  0
 13 20  1  0  0  0
  6 12  1  0  0  0
M  END
> <minimizedAffinity>
-10.95490

$$$$
CHEMBL304552


 35 39  0  0  0  0  0  0  0  0999 V2000
   31.2957   -0.7608   27.4665 C   0  0  0  0  0  0  0  0  0  0  0  0
   30.1293    0.2289   26.4706 S   0  0  0  0  0  0  0  0  0  0  0  0
   28.6982   -0.7123   26.9992 C   0  0  0  0  0  0  0  0  0  0  0  0
   27.4898   -0.0429   27.2210 C   0  0  0  0  0  0  0  0  0  0  0  0
   26.3274   -0.7648   27.5248 C   0  0  0  0  0  0  0  0  0  0  0  0
   25.1139   -0.1065   27.7208 O   0  0  0  0  0  0  0  0  0  0  0  0
   26.3815   -2.1597   27.6169 C   0  0  0  0  0  0  0  0  0  0  0  0
   27.5934   -2.8305   27.4256 C   0  0  0  0  0  0  0  0  0  0  0  0
   28.7621   -2.1131   27.1421 C   0  0  0  0  0  0  0  0  0  0  0  0
   29.9727   -2.8183   27.0582 O   0  0  0  0  0  0  0  0  0  0  0  0
   31.2832   -2.2394   27.0016 C   0  0  0  0  0  0  0  0  0  0  0  0
   25.0330    0.8981   27.6106 H   0  0  0  0  0  0  0  0  0  0  0  0
   36.5232    1.5830   27.4245 O   0  0  0  0  0  0  0  0  0  0  0  0
   35.2530    1.0133   27.4309 C   0  0  0  0  0  0  0  0  0  0  0  0
   34.2985    1.3833   26.4728 C   0  0  0  0  0  0  0  0  0  0  0  0
   33.0266    0.8025   26.4884 C   0  0  0  0  0  0  0  0  0  0  0  0
   32.6944   -0.1677   27.4531 C   0  0  0  0  0  0  0  0  0  0  0  0
   33.6556   -0.5147   28.4254 C   0  0  0  0  0  0  0  0  0  0  0  0
   34.9271    0.0668   28.4064 C   0  0  0  0  0  0  0  0  0  0  0  0
   36.7849    2.2752   26.7368 H   0  0  0  0  0  0  0  0  0  0  0  0
   31.8837   -2.4523   25.6240 C   0  0  0  0  0  0  0  0  0  0  0  0
   32.9764   -3.3235   25.4646 C   0  0  0  0  0  0  0  0  0  0  0  0
   33.5588   -3.5102   24.2087 C   0  0  0  0  0  0  0  0  0  0  0  0
   33.0524   -2.8304   23.0817 C   0  0  0  0  0  0  0  0  0  0  0  0
   31.9661   -1.9611   23.2410 C   0  0  0  0  0  0  0  0  0  0  0  0
   31.3824   -1.7748   24.4968 C   0  0  0  0  0  0  0  0  0  0  0  0
   33.5956   -2.9794   21.7940 O   0  0  0  0  0  0  0  0  0  0  0  0
   34.6752   -3.8461   21.4434 C   0  0  0  0  0  0  0  0  0  0  0  0
   35.9097   -3.0376   21.0330 C   0  0  0  0  0  0  0  0  0  0  0  0
   36.6749   -3.7651   19.9946 N   0  0  0  0  0  0  0  0  0  0  0  0
   35.8051   -4.1465   18.8621 C   0  0  0  0  0  0  0  0  0  0  0  0
   36.5601   -5.0103   17.8313 C   0  0  0  0  0  0  0  0  0  0  0  0
   38.0656   -5.0757   18.1081 C   0  0  0  0  0  0  0  0  0  0  0  0
   38.6233   -3.6834   18.4189 C   0  0  0  0  0  0  0  0  0  0  0  0
   37.8132   -2.9538   19.5135 C   0  0  0  0  0  0  0  0  0  0  0  0
 13 14  1  0  0  0
 14 15  2  0  0  0
 15 16  1  0  0  0
 16 17  2  0  0  0
 17  1  1  0  0  0
  1  2  1  0  0  0
  2  3  1  0  0  0
  3  4  2  0  0  0
  4  5  1  0  0  0
  5  6  1  0  0  0
  5  7  2  0  0  0
  7  8  1  0  0  0
  8  9  2  0  0  0
  9 10  1  0  0  0
 10 11  1  0  0  0
 11 21  1  0  0  0
 21 22  2  0  0  0
 22 23  1  0  0  0
 23 24  2  0  0  0
 24 27  1  0  0  0
 27 28  1  0  0  0
 28 29  1  0  0  0
 29 30  1  0  0  0
 30 31  1  0  0  0
 31 32  1  0  0  0
 32 33  1  0  0  0
 33 34  1  0  0  0
 34 35  1  0  0  0
 24 25  1  0  0  0
 25 26  2  0  0  0
 17 18  1  0  0  0
 18 19  2  0  0  0
 19 14  1  0  0  0
 11  1  1  0  0  0
 26 21  1  0  0  0
  9  3  1  0  0  0
 35 30  1  0  0  0
 13 20  1  0  0  0
  6 12  1  0  0  0
M  END
> <minimizedAffinity>
-10.57395

$$$$
CHEMBL304552


 35 39  0  0  0  0  0  0  0  0999 V2000
   36.5844   -2.6124   17.7566 C   0  0  0  0  0  0  0  0  0  0  0  0
   35.2060   -1.4620   17.4267 S   0  0  0  0  0  0  0  0  0  0  0  0
   36.2153   -0.0002   17.6670 C   0  0  0  0  0  0  0  0  0  0  0  0
   35.9988    1.1156   16.8512 C   0  0  0  0  0  0  0  0  0  0  0  0
   36.6930    2.3099   17.0883 C   0  0  0  0  0  0  0  0  0  0  0  0
   36.4629    3.4341   16.2961 O   0  0  0  0  0  0  0  0  0  0  0  0
   37.6138    2.3799   18.1392 C   0  0  0  0  0  0  0  0  0  0  0  0
   37.8554    1.2580   18.9382 C   0  0  0  0  0  0  0  0  0  0  0  0
   37.1800    0.0562   18.6932 C   0  0  0  0  0  0  0  0  0  0  0  0
   37.5277   -1.0705   19.4546 O   0  0  0  0  0  0  0  0  0  0  0  0
   37.1148   -2.4199   19.2002 C   0  0  0  0  0  0  0  0  0  0  0  0
   35.7654    3.4292   15.5604 H   0  0  0  0  0  0  0  0  0  0  0  0
   35.0786   -8.0166   16.5950 O   0  0  0  0  0  0  0  0  0  0  0  0
   35.4413   -6.7029   16.8793 C   0  0  0  0  0  0  0  0  0  0  0  0
   34.4868   -5.6762   16.8537 C   0  0  0  0  0  0  0  0  0  0  0  0
   34.8629   -4.3608   17.1429 C   0  0  0  0  0  0  0  0  0  0  0  0
   36.1961   -4.0543   17.4763 C   0  0  0  0  0  0  0  0  0  0  0  0
   37.1513   -5.0921   17.4763 C   0  0  0  0  0  0  0  0  0  0  0  0
   36.7719   -6.4067   17.1881 C   0  0  0  0  0  0  0  0  0  0  0  0
   34.1264   -8.2597   16.3610 H   0  0  0  0  0  0  0  0  0  0  0  0
   36.1437   -2.8749   20.2742 C   0  0  0  0  0  0  0  0  0  0  0  0
   34.8832   -2.2605   20.3829 C   0  0  0  0  0  0  0  0  0  0  0  0
   33.9878   -2.6479   21.3827 C   0  0  0  0  0  0  0  0  0  0  0  0
   34.3359   -3.6669   22.2933 C   0  0  0  0  0  0  0  0  0  0  0  0
   35.5920   -4.2767   22.1866 C   0  0  0  0  0  0  0  0  0  0  0  0
   36.4876   -3.8905   21.1860 C   0  0  0  0  0  0  0  0  0  0  0  0
   33.4767   -4.0996   23.3179 O   0  0  0  0  0  0  0  0  0  0  0  0
   32.5003   -3.2934   23.9786 C   0  0  0  0  0  0  0  0  0  0  0  0
   32.7228   -3.3032   25.4940 C   0  0  0  0  0  0  0  0  0  0  0  0
   33.1534   -1.9636   25.9558 N   0  0  0  0  0  0  0  0  0  0  0  0
   32.3374   -0.8991   25.3350 C   0  0  0  0  0  0  0  0  0  0  0  0
   32.8531    0.5049   25.7112 C   0  0  0  0  0  0  0  0  0  0  0  0
   33.9287    0.4642   26.8014 C   0  0  0  0  0  0  0  0  0  0  0  0
   33.5155   -0.4739   27.9396 C   0  0  0  0  0  0  0  0  0  0  0  0
   33.0836   -1.8666   27.4293 C   0  0  0  0  0  0  0  0  0  0  0  0
 13 14  1  0  0  0
 14 15  2  0  0  0
 15 16  1  0  0  0
 16 17  2  0  0  0
 17  1  1  0  0  0
  1  2  1  0  0  0
  2  3  1  0  0  0
  3  4  2  0  0  0
  4  5  1  0  0  0
  5  6  1  0  0  0
  5  7  2  0  0  0
  7  8  1  0  0  0
  8  9  2  0  0  0
  9 10  1  0  0  0
 10 11  1  0  0  0
 11 21  1  0  0  0
 21 22  2  0  0  0
 22 23  1  0  0  0
 23 24  2  0  0  0
 24 27  1  0  0  0
 27 28  1  0  0  0
 28 29  1  0  0  0
 29 30  1  0  0  0
 30 31  1  0  0  0
 31 32  1  0  0  0
 32 33  1  0  0  0
 33 34  1  0  0  0
 34 35  1  0  0  0
 24 25  1  0  0  0
 25 26  2  0  0  0
 17 18  1  0  0  0
 18 19  2  0  0  0
 19 14  1  0  0  0
 11  1  1  0  0  0
 26 21  1  0  0  0
  9  3  1  0  0  0
 35 30  1  0  0  0
 13 20  1  0  0  0
  6 12  1  0  0  0
M  END
> <minimizedAffinity>
-9.38431

$$$$
CHEMBL304552


 35 39  0  0  0  0  0  0  0  0999 V2000
   36.4732   -2.5531   17.6441 C   0  0  0  0  0  0  0  0  0  0  0  0
   35.1115   -1.3589   17.4163 S   0  0  0  0  0  0  0  0  0  0  0  0
   36.1700    0.0691   17.6484 C   0  0  0  0  0  0  0  0  0  0  0  0
   35.9437    1.2141   16.8768 C   0  0  0  0  0  0  0  0  0  0  0  0
   36.6803    2.3828   17.1137 C   0  0  0  0  0  0  0  0  0  0  0  0
   36.4417    3.5358   16.3666 O   0  0  0  0  0  0  0  0  0  0  0  0
   37.6528    2.3978   18.1192 C   0  0  0  0  0  0  0  0  0  0  0  0
   37.9031    1.2466   18.8725 C   0  0  0  0  0  0  0  0  0  0  0  0
   37.1847    0.0702   18.6267 C   0  0  0  0  0  0  0  0  0  0  0  0
   37.5390   -1.0874   19.3370 O   0  0  0  0  0  0  0  0  0  0  0  0
   37.0784   -2.4176   19.0646 C   0  0  0  0  0  0  0  0  0  0  0  0
   35.7093    3.5707   15.6666 H   0  0  0  0  0  0  0  0  0  0  0  0
   34.7777   -7.8820   16.3989 O   0  0  0  0  0  0  0  0  0  0  0  0
   35.1864   -6.5865   16.7034 C   0  0  0  0  0  0  0  0  0  0  0  0
   34.2772   -5.5202   16.6561 C   0  0  0  0  0  0  0  0  0  0  0  0
   34.6993   -4.2236   16.9660 C   0  0  0  0  0  0  0  0  0  0  0  0
   36.0333   -3.9756   17.3419 C   0  0  0  0  0  0  0  0  0  0  0  0
   36.9436   -5.0529   17.3636 C   0  0  0  0  0  0  0  0  0  0  0  0
   36.5182   -6.3486   17.0546 C   0  0  0  0  0  0  0  0  0  0  0  0
   33.8237   -8.0832   16.1343 H   0  0  0  0  0  0  0  0  0  0  0  0
   36.1491   -2.8802   20.1719 C   0  0  0  0  0  0  0  0  0  0  0  0
   34.8608   -2.3262   20.2805 C   0  0  0  0  0  0  0  0  0  0  0  0
   34.0026   -2.7203   21.3098 C   0  0  0  0  0  0  0  0  0  0  0  0
   34.4166   -3.6857   22.2507 C   0  0  0  0  0  0  0  0  0  0  0  0
   35.7002   -4.2352   22.1440 C   0  0  0  0  0  0  0  0  0  0  0  0
   36.5588   -3.8423   21.1139 C   0  0  0  0  0  0  0  0  0  0  0  0
   33.5971   -4.1221   23.3059 O   0  0  0  0  0  0  0  0  0  0  0  0
   32.5387   -3.3702   23.9010 C   0  0  0  0  0  0  0  0  0  0  0  0
   32.7970   -3.1576   25.3957 C   0  0  0  0  0  0  0  0  0  0  0  0
   31.6008   -2.5715   26.0426 N   0  0  0  0  0  0  0  0  0  0  0  0
   31.9707   -1.8079   27.2528 C   0  0  0  0  0  0  0  0  0  0  0  0
   30.7253   -1.2951   28.0043 C   0  0  0  0  0  0  0  0  0  0  0  0
   29.4319   -1.5011   27.2093 C   0  0  0  0  0  0  0  0  0  0  0  0
   29.6144   -1.0698   25.7508 C   0  0  0  0  0  0  0  0  0  0  0  0
   30.8621   -1.7060   25.0988 C   0  0  0  0  0  0  0  0  0  0  0  0
 13 14  1  0  0  0
 14 15  2  0  0  0
 15 16  1  0  0  0
 16 17  2  0  0  0
 17  1  1  0  0  0
  1  2  1  0  0  0
  2  3  1  0  0  0
  3  4  2  0  0  0
  4  5  1  0  0  0
  5  6  1  0  0  0
  5  7  2  0  0  0
  7  8  1  0  0  0
  8  9  2  0  0  0
  9 10  1  0  0  0
 10 11  1  0  0  0
 11 21  1  0  0  0
 21 22  2  0  0  0
 22 23  1  0  0  0
 23 24  2  0  0  0
 24 27  1  0  0  0
 27 28  1  0  0  0
 28 29  1  0  0  0
 29 30  1  0  0  0
 30 31  1  0  0  0
 31 32  1  0  0  0
 32 33  1  0  0  0
 33 34  1  0  0  0
 34 35  1  0  0  0
 24 25  1  0  0  0
 25 26  2  0  0  0
 17 18  1  0  0  0
 18 19  2  0  0  0
 19 14  1  0  0  0
 11  1  1  0  0  0
 26 21  1  0  0  0
  9  3  1  0  0  0
 35 30  1  0  0  0
 13 20  1  0  0  0
  6 12  1  0  0  0
M  END
> <minimizedAffinity>
-9.18627

$$$$
CHEMBL304552


 35 39  0  0  0  0  0  0  0  0999 V2000
   39.3039   -0.7180   14.7725 C   0  0  0  0  0  0  0  0  0  0  0  0
   40.1928   -2.2714   15.1317 S   0  0  0  0  0  0  0  0  0  0  0  0
   40.6120   -2.5647   13.4137 C   0  0  0  0  0  0  0  0  0  0  0  0
   41.8614   -3.1129   13.1041 C   0  0  0  0  0  0  0  0  0  0  0  0
   42.1738   -3.4580   11.7820 C   0  0  0  0  0  0  0  0  0  0  0  0
   43.4068   -4.0295   11.4699 O   0  0  0  0  0  0  0  0  0  0  0  0
   41.2342   -3.2416   10.7683 C   0  0  0  0  0  0  0  0  0  0  0  0
   39.9958   -2.6660   11.0687 C   0  0  0  0  0  0  0  0  0  0  0  0
   39.6860   -2.3004   12.3844 C   0  0  0  0  0  0  0  0  0  0  0  0
   38.4737   -1.6344   12.6228 O   0  0  0  0  0  0  0  0  0  0  0  0
   38.0917   -0.9913   13.8460 C   0  0  0  0  0  0  0  0  0  0  0  0
   44.0875   -4.2451   12.1897 H   0  0  0  0  0  0  0  0  0  0  0  0
   37.8895    2.0009   19.6129 O   0  0  0  0  0  0  0  0  0  0  0  0
   38.2314    1.3371   18.4380 C   0  0  0  0  0  0  0  0  0  0  0  0
   38.6502   -0.0007   18.4685 C   0  0  0  0  0  0  0  0  0  0  0  0
   38.9892   -0.6574   17.2814 C   0  0  0  0  0  0  0  0  0  0  0  0
   38.9007    0.0090   16.0443 C   0  0  0  0  0  0  0  0  0  0  0  0
   38.5000    1.3614   16.0291 C   0  0  0  0  0  0  0  0  0  0  0  0
   38.1603    2.0149   17.2177 C   0  0  0  0  0  0  0  0  0  0  0  0
   37.9385    1.5394   20.5103 H   0  0  0  0  0  0  0  0  0  0  0  0
   36.9751   -1.7724   14.5143 C   0  0  0  0  0  0  0  0  0  0  0  0
   36.8048   -3.1377   14.2220 C   0  0  0  0  0  0  0  0  0  0  0  0
   35.7657   -3.8652   14.8070 C   0  0  0  0  0  0  0  0  0  0  0  0
   34.8766   -3.2390   15.7049 C   0  0  0  0  0  0  0  0  0  0  0  0
   35.0446   -1.8792   15.9938 C   0  0  0  0  0  0  0  0  0  0  0  0
   36.0846   -1.1511   15.4099 C   0  0  0  0  0  0  0  0  0  0  0  0
   33.8145   -3.9195   16.3248 O   0  0  0  0  0  0  0  0  0  0  0  0
   33.1022   -3.4715   17.4788 C   0  0  0  0  0  0  0  0  0  0  0  0
   33.4572   -4.3235   18.7011 C   0  0  0  0  0  0  0  0  0  0  0  0
   34.6777   -3.7969   19.3540 N   0  0  0  0  0  0  0  0  0  0  0  0
   34.6371   -2.3224   19.4472 C   0  0  0  0  0  0  0  0  0  0  0  0
   35.9537   -1.7521   20.0130 C   0  0  0  0  0  0  0  0  0  0  0  0
   36.8868   -2.8439   20.5466 C   0  0  0  0  0  0  0  0  0  0  0  0
   36.1142   -3.8475   21.4082 C   0  0  0  0  0  0  0  0  0  0  0  0
   34.8540   -4.3888   20.6971 C   0  0  0  0  0  0  0  0  0  0  0  0
 13 14  1  0  0  0
 14 15  2  0  0  0
 15 16  1  0  0  0
 16 17  2  0  0  0
 17  1  1  0  0  0
  1  2  1  0  0  0
  2  3  1  0  0  0
  3  4  2  0  0  0
  4  5  1  0  0  0
  5  6  1  0  0  0
  5  7  2  0  0  0
  7  8  1  0  0  0
  8  9  2  0  0  0
  9 10  1  0  0  0
 10 11  1  0  0  0
 11 21  1  0  0  0
 21 22  2  0  0  0
 22 23  1  0  0  0
 23 24  2  0  0  0
 24 27  1  0  0  0
 27 28  1  0  0  0
 28 29  1  0  0  0
 29 30  1  0  0  0
 30 31  1  0  0  0
 31 32  1  0  0  0
 32 33  1  0  0  0
 33 34  1  0  0  0
 34 35  1  0  0  0
 24 25  1  0  0  0
 25 26  2  0  0  0
 17 18  1  0  0  0
 18 19  2  0  0  0
 19 14  1  0  0  0
 11  1  1  0  0  0
 26 21  1  0  0  0
  9  3  1  0  0  0
 35 30  1  0  0  0
 13 20  1  0  0  0
  6 12  1  0  0  0
M  END
> <minimizedAffinity>
-9.09087

$$$$
CHEMBL304552


 35 39  0  0  0  0  0  0  0  0999 V2000
   36.8615   -2.6088   17.4229 C   0  0  0  0  0  0  0  0  0  0  0  0
   37.8858   -2.7312   18.9288 S   0  0  0  0  0  0  0  0  0  0  0  0
   36.4796   -3.0212   20.0021 C   0  0  0  0  0  0  0  0  0  0  0  0
   36.6128   -3.9178   21.0678 C   0  0  0  0  0  0  0  0  0  0  0  0
   35.5693   -4.0802   21.9894 C   0  0  0  0  0  0  0  0  0  0  0  0
   35.7050   -4.9520   23.0691 O   0  0  0  0  0  0  0  0  0  0  0  0
   34.3865   -3.3493   21.8337 C   0  0  0  0  0  0  0  0  0  0  0  0
   34.2376   -2.4746   20.7530 C   0  0  0  0  0  0  0  0  0  0  0  0
   35.2687   -2.3236   19.8177 C   0  0  0  0  0  0  0  0  0  0  0  0
   35.0368   -1.5129   18.6957 O   0  0  0  0  0  0  0  0  0  0  0  0
   35.8749   -1.4187   17.5361 C   0  0  0  0  0  0  0  0  0  0  0  0
   36.5684   -5.4564   23.2367 H   0  0  0  0  0  0  0  0  0  0  0  0
   40.1347   -2.4014   12.7256 O   0  0  0  0  0  0  0  0  0  0  0  0
   39.3413   -2.4489   13.8685 C   0  0  0  0  0  0  0  0  0  0  0  0
   39.9085   -2.2832   15.1401 C   0  0  0  0  0  0  0  0  0  0  0  0
   39.1008   -2.3310   16.2806 C   0  0  0  0  0  0  0  0  0  0  0  0
   37.7118   -2.5307   16.1662 C   0  0  0  0  0  0  0  0  0  0  0  0
   37.1566   -2.7187   14.8833 C   0  0  0  0  0  0  0  0  0  0  0  0
   37.9666   -2.6690   13.7446 C   0  0  0  0  0  0  0  0  0  0  0  0
   41.1321   -2.2516   12.7844 H   0  0  0  0  0  0  0  0  0  0  0  0
   36.5490   -0.0595   17.4941 C   0  0  0  0  0  0  0  0  0  0  0  0
   37.0858    0.4915   18.6716 C   0  0  0  0  0  0  0  0  0  0  0  0
   37.6852    1.7531   18.6566 C   0  0  0  0  0  0  0  0  0  0  0  0
   37.7651    2.4884   17.4559 C   0  0  0  0  0  0  0  0  0  0  0  0
   37.2283    1.9409   16.2841 C   0  0  0  0  0  0  0  0  0  0  0  0
   36.6295    0.6784   16.2982 C   0  0  0  0  0  0  0  0  0  0  0  0
   38.3573    3.7607   17.3792 O   0  0  0  0  0  0  0  0  0  0  0  0
   38.2516    4.6607   16.2752 C   0  0  0  0  0  0  0  0  0  0  0  0
   38.4214    6.1108   16.7383 C   0  0  0  0  0  0  0  0  0  0  0  0
   39.3046    6.1679   17.9255 N   0  0  0  0  0  0  0  0  0  0  0  0
   40.6726    6.5841   17.5515 C   0  0  0  0  0  0  0  0  0  0  0  0
   41.6330    6.5297   18.7570 C   0  0  0  0  0  0  0  0  0  0  0  0
   40.9027    6.2804   20.0806 C   0  0  0  0  0  0  0  0  0  0  0  0
   39.6624    7.1721   20.1948 C   0  0  0  0  0  0  0  0  0  0  0  0
   38.7543    7.0827   18.9482 C   0  0  0  0  0  0  0  0  0  0  0  0
 13 14  1  0  0  0
 14 15  2  0  0  0
 15 16  1  0  0  0
 16 17  2  0  0  0
 17  1  1  0  0  0
  1  2  1  0  0  0
  2  3  1  0  0  0
  3  4  2  0  0  0
  4  5  1  0  0  0
  5  6  1  0  0  0
  5  7  2  0  0  0
  7  8  1  0  0  0
  8  9  2  0  0  0
  9 10  1  0  0  0
 10 11  1  0  0  0
 11 21  1  0  0  0
 21 22  2  0  0  0
 22 23  1  0  0  0
 23 24  2  0  0  0
 24 27  1  0  0  0
 27 28  1  0  0  0
 28 29  1  0  0  0
 29 30  1  0  0  0
 30 31  1  0  0  0
 31 32  1  0  0  0
 32 33  1  0  0  0
 33 34  1  0  0  0
 34 35  1  0  0  0
 24 25  1  0  0  0
 25 26  2  0  0  0
 17 18  1  0  0  0
 18 19  2  0  0  0
 19 14  1  0  0  0
 11  1  1  0  0  0
 26 21  1  0  0  0
  9  3  1  0  0  0
 35 30  1  0  0  0
 13 20  1  0  0  0
  6 12  1  0  0  0
M  END
> <minimizedAffinity>
-8.73318

$$$$
CHEMBL304552


 35 39  0  0  0  0  0  0  0  0999 V2000
   35.0567   -2.7057   17.1848 C   0  0  0  0  0  0  0  0  0  0  0  0
   34.7117   -0.9754   17.6526 S   0  0  0  0  0  0  0  0  0  0  0  0
   36.4145   -0.4566   17.4408 C   0  0  0  0  0  0  0  0  0  0  0  0
   36.6765    0.8098   16.9069 C   0  0  0  0  0  0  0  0  0  0  0  0
   37.9922    1.2876   16.8341 C   0  0  0  0  0  0  0  0  0  0  0  0
   38.2587    2.5593   16.3279 O   0  0  0  0  0  0  0  0  0  0  0  0
   39.0466    0.4879   17.2879 C   0  0  0  0  0  0  0  0  0  0  0  0
   38.7919   -0.7904   17.7943 C   0  0  0  0  0  0  0  0  0  0  0  0
   37.4817   -1.2811   17.8505 C   0  0  0  0  0  0  0  0  0  0  0  0
   37.2838   -2.6054   18.2712 O   0  0  0  0  0  0  0  0  0  0  0  0
   36.0587   -3.3447   18.1799 C   0  0  0  0  0  0  0  0  0  0  0  0
   37.5117    3.1811   16.0391 H   0  0  0  0  0  0  0  0  0  0  0  0
   30.2913   -5.8578   16.7635 O   0  0  0  0  0  0  0  0  0  0  0  0
   31.4505   -5.0934   16.8626 C   0  0  0  0  0  0  0  0  0  0  0  0
   32.6988   -5.6419   16.5358 C   0  0  0  0  0  0  0  0  0  0  0  0
   33.8560   -4.8635   16.6376 C   0  0  0  0  0  0  0  0  0  0  0  0
   33.7810   -3.5205   17.0537 C   0  0  0  0  0  0  0  0  0  0  0  0
   32.5223   -2.9871   17.4014 C   0  0  0  0  0  0  0  0  0  0  0  0
   31.3668   -3.7676   17.2972 C   0  0  0  0  0  0  0  0  0  0  0  0
   30.3215   -6.8208   16.4598 H   0  0  0  0  0  0  0  0  0  0  0  0
   35.4846   -3.5679   19.5671 C   0  0  0  0  0  0  0  0  0  0  0  0
   35.5476   -4.8452   20.1527 C   0  0  0  0  0  0  0  0  0  0  0  0
   34.9999   -5.0748   21.4171 C   0  0  0  0  0  0  0  0  0  0  0  0
   34.3816   -4.0240   22.1259 C   0  0  0  0  0  0  0  0  0  0  0  0
   34.3167   -2.7531   21.5417 C   0  0  0  0  0  0  0  0  0  0  0  0
   34.8654   -2.5224   20.2774 C   0  0  0  0  0  0  0  0  0  0  0  0
   33.8149   -4.1945   23.4007 O   0  0  0  0  0  0  0  0  0  0  0  0
   33.5544   -3.1506   24.3400 C   0  0  0  0  0  0  0  0  0  0  0  0
   32.1345   -3.2678   24.9024 C   0  0  0  0  0  0  0  0  0  0  0  0
   31.9703   -2.3676   26.0668 N   0  0  0  0  0  0  0  0  0  0  0  0
   32.4856   -1.0145   25.7701 C   0  0  0  0  0  0  0  0  0  0  0  0
   32.4335   -0.1014   27.0119 C   0  0  0  0  0  0  0  0  0  0  0  0
   31.6632   -0.7337   28.1756 C   0  0  0  0  0  0  0  0  0  0  0  0
   30.3493   -1.3515   27.6873 C   0  0  0  0  0  0  0  0  0  0  0  0
   30.5530   -2.2947   26.4808 C   0  0  0  0  0  0  0  0  0  0  0  0
 13 14  1  0  0  0
 14 15  2  0  0  0
 15 16  1  0  0  0
 16 17  2  0  0  0
 17  1  1  0  0  0
  1  2  1  0  0  0
  2  3  1  0  0  0
  3  4  2  0  0  0
  4  5  1  0  0  0
  5  6  1  0  0  0
  5  7  2  0  0  0
  7  8  1  0  0  0
  8  9  2  0  0  0
  9 10  1  0  0  0
 10 11  1  0  0  0
 11 21  1  0  0  0
 21 22  2  0  0  0
 22 23  1  0  0  0
 23 24  2  0  0  0
 24 27  1  0  0  0
 27 28  1  0  0  0
 28 29  1  0  0  0
 29 30  1  0  0  0
 30 31  1  0  0  0
 31 32  1  0  0  0
 32 33  1  0  0  0
 33 34  1  0  0  0
 34 35  1  0  0  0
 24 25  1  0  0  0
 25 26  2  0  0  0
 17 18  1  0  0  0
 18 19  2  0  0  0
 19 14  1  0  0  0
 11  1  1  0  0  0
 26 21  1  0  0  0
  9  3  1  0  0  0
 35 30  1  0  0  0
 13 20  1  0  0  0
  6 12  1  0  0  0
M  END
> <minimizedAffinity>
-8.69279

$$$$
CHEMBL304552


 35 39  0  0  0  0  0  0  0  0999 V2000
   36.7930    0.2604   18.8370 C   0  0  0  0  0  0  0  0  0  0  0  0
   35.3898   -0.6563   18.1140 S   0  0  0  0  0  0  0  0  0  0  0  0
   35.3201   -1.8403   19.4582 C   0  0  0  0  0  0  0  0  0  0  0  0
   34.0723   -2.2958   19.8973 C   0  0  0  0  0  0  0  0  0  0  0  0
   33.9894   -3.3038   20.8678 C   0  0  0  0  0  0  0  0  0  0  0  0
   32.7496   -3.7816   21.2908 O   0  0  0  0  0  0  0  0  0  0  0  0
   35.1612   -3.8468   21.4056 C   0  0  0  0  0  0  0  0  0  0  0  0
   36.4100   -3.3733   20.9915 C   0  0  0  0  0  0  0  0  0  0  0  0
   36.4988   -2.3522   20.0374 C   0  0  0  0  0  0  0  0  0  0  0  0
   37.7678   -1.8392   19.7269 O   0  0  0  0  0  0  0  0  0  0  0  0
   38.0347   -0.6595   18.9569 C   0  0  0  0  0  0  0  0  0  0  0  0
   31.8851   -3.4438   20.8829 H   0  0  0  0  0  0  0  0  0  0  0  0
   37.8181    5.0873   15.9264 O   0  0  0  0  0  0  0  0  0  0  0  0
   37.5689    3.9125   16.6304 C   0  0  0  0  0  0  0  0  0  0  0  0
   36.6367    2.9787   16.1559 C   0  0  0  0  0  0  0  0  0  0  0  0
   36.3963    1.8013   16.8710 C   0  0  0  0  0  0  0  0  0  0  0  0
   37.0950    1.5328   18.0636 C   0  0  0  0  0  0  0  0  0  0  0  0
   38.0134    2.4903   18.5423 C   0  0  0  0  0  0  0  0  0  0  0  0
   38.2526    3.6661   17.8243 C   0  0  0  0  0  0  0  0  0  0  0  0
   37.3337    5.2962   15.0648 H   0  0  0  0  0  0  0  0  0  0  0  0
   38.6443   -1.0412   17.6203 C   0  0  0  0  0  0  0  0  0  0  0  0
   38.3246   -2.2790   17.0340 C   0  0  0  0  0  0  0  0  0  0  0  0
   38.8977   -2.6582   15.8178 C   0  0  0  0  0  0  0  0  0  0  0  0
   39.8010   -1.7989   15.1586 C   0  0  0  0  0  0  0  0  0  0  0  0
   40.1212   -0.5677   15.7438 C   0  0  0  0  0  0  0  0  0  0  0  0
   39.5474   -0.1873   16.9598 C   0  0  0  0  0  0  0  0  0  0  0  0
   40.4073   -2.1253   13.9334 O   0  0  0  0  0  0  0  0  0  0  0  0
   40.6623   -1.2135   12.8641 C   0  0  0  0  0  0  0  0  0  0  0  0
   39.4827   -1.1776   11.8877 C   0  0  0  0  0  0  0  0  0  0  0  0
   38.6773    0.0461   12.1043 N   0  0  0  0  0  0  0  0  0  0  0  0
   37.4809   -0.2423   12.9227 C   0  0  0  0  0  0  0  0  0  0  0  0
   36.5697    0.9952   13.0535 C   0  0  0  0  0  0  0  0  0  0  0  0
   37.2229    2.2677   12.5044 C   0  0  0  0  0  0  0  0  0  0  0  0
   38.6699    2.3910   12.9917 C   0  0  0  0  0  0  0  0  0  0  0  0
   39.4886    1.1050   12.7416 C   0  0  0  0  0  0  0  0  0  0  0  0
 13 14  1  0  0  0
 14 15  2  0  0  0
 15 16  1  0  0  0
 16 17  2  0  0  0
 17  1  1  0  0  0
  1  2  1  0  0  0
  2  3  1  0  0  0
  3  4  2  0  0  0
  4  5  1  0  0  0
  5  6  1  0  0  0
  5  7  2  0  0  0
  7  8  1  0  0  0
  8  9  2  0  0  0
  9 10  1  0  0  0
 10 11  1  0  0  0
 11 21  1  0  0  0
 21 22  2  0  0  0
 22 23  1  0  0  0
 23 24  2  0  0  0
 24 27  1  0  0  0
 27 28  1  0  0  0
 28 29  1  0  0  0
 29 30  1  0  0  0
 30 31  1  0  0  0
 31 32  1  0  0  0
 32 33  1  0  0  0
 33 34  1  0  0  0
 34 35  1  0  0  0
 24 25  1  0  0  0
 25 26  2  0  0  0
 17 18  1  0  0  0
 18 19  2  0  0  0
 19 14  1  0  0  0
 11  1  1  0  0  0
 26 21  1  0  0  0
  9  3  1  0  0  0
 35 30  1  0  0  0
 13 20  1  0  0  0
  6 12  1  0  0  0
M  END
> <minimizedAffinity>
-8.65523

$$$$
