CMP_0


 35 39  0  0  0  0  0  0  0  0999 V2000
   37.5818   -1.5736   17.3922 C   0  0  0  0  0  0  0  0  0  0  0  0
   38.5166   -0.2934   16.4889 S   0  0  0  0  0  0  0  0  0  0  0  0
   37.0837    0.7070   16.0888 C   0  0  0  0  0  0  0  0  0  0  0  0
   37.0416    1.3651   14.8535 C   0  0  0  0  0  0  0  0  0  0  0  0
   35.9716    2.2147   14.5420 C   0  0  0  0  0  0  0  0  0  0  0  0
   35.9272    2.8830   13.3206 O   0  0  0  0  0  0  0  0  0  0  0  0
   34.9405    2.3986   15.4676 C   0  0  0  0  0  0  0  0  0  0  0  0
   34.9662    1.7224   16.6900 C   0  0  0  0  0  0  0  0  0  0  0  0
   36.0225    0.8580   17.0000 C   0  0  0  0  0  0  0  0  0  0  0  0
   35.9450    0.1085   18.1816 O   0  0  0  0  0  0  0  0  0  0  0  0
   36.8785   -0.8960   18.6016 C   0  0  0  0  0  0  0  0  0  0  0  0
   36.6591    2.7706   12.6288 H   0  0  0  0  0  0  0  0  0  0  0  0
   34.4725   -4.6363   13.6655 O   0  0  0  0  0  0  0  0  0  0  0  0
   35.2216   -3.8950   14.5762 C   0  0  0  0  0  0  0  0  0  0  0  0
   34.6024   -3.3656   15.7102 C   0  0  0  0  0  0  0  0  0  0  0  0
   35.3390   -2.6189   16.6341 C   0  0  0  0  0  0  0  0  0  0  0  0
   36.7170   -2.3875   16.4340 C   0  0  0  0  0  0  0  0  0  0  0  0
   37.3279   -2.9308   15.2887 C   0  0  0  0  0  0  0  0  0  0  0  0
   36.5879   -3.6770   14.3679 C   0  0  0  0  0  0  0  0  0  0  0  0
   34.8949   -5.0405   12.8374 H   0  0  0  0  0  0  0  0  0  0  0  0
   36.1926   -1.8416   19.5824 C   0  0  0  0  0  0  0  0  0  0  0  0
   34.7972   -1.7469   19.7408 C   0  0  0  0  0  0  0  0  0  0  0  0
   34.1184   -2.5706   20.6424 C   0  0  0  0  0  0  0  0  0  0  0  0
   34.8255   -3.5006   21.4229 C   0  0  0  0  0  0  0  0  0  0  0  0
   36.2137   -3.5836   21.2909 C   0  0  0  0  0  0  0  0  0  0  0  0
   36.8958   -2.7599   20.3915 C   0  0  0  0  0  0  0  0  0  0  0  0
   34.1921   -4.3518   22.3392 O   0  0  0  0  0  0  0  0  0  0  0  0
   32.9639   -4.0580   23.0002 C   0  0  0  0  0  0  0  0  0  0  0  0
   33.2336   -3.2926   24.2972 C   0  0  0  0  0  0  0  0  0  0  0  0
   31.9718   -2.8860   24.9497 N   0  0  0  0  0  0  0  0  0  0  0  0
   31.4334   -1.6200   24.4310 C   0  0  0  0  0  0  0  0  0  0  0  0
   30.7162   -0.9219   25.5825 C   0  0  0  0  0  0  0  0  0  0  0  0
   31.0556   -1.7284   26.8250 C   0  0  0  0  0  0  0  0  0  0  0  0
   29.9523   -2.4614   27.2320 F   0  0  0  0  0  0  0  0  0  0  0  0
   32.1633   -2.6662   26.3848 C   0  0  0  0  0  0  0  0  0  0  0  0
 13 14  1  0  0  0
 14 15  2  0  0  0
 15 16  1  0  0  0
 16 17  2  0  0  0
 17  1  1  0  0  0
  1  2  1  0  0  0
  2  3  1  0  0  0
  3  4  2  0  0  0
  4  5  1  0  0  0
  5  6  1  0  0  0
  5  7  2  0  0  0
  7  8  1  0  0  0
  8  9  2  0  0  0
  9 10  1  0  0  0
 10 11  1  0  0  0
 11 21  1  0  0  0
 21 22  2  0  0  0
 22 23  1  0  0  0
 23 24  2  0  0  0
 24 27  1  0  0  0
 27 28  1  0  0  0
 28 29  1  0  0  0
 29 30  1  0  0  0
 30 31  1  0  0  0
 31 32  1  0  0  0
 32 33  1  0  0  0
 33 34  1  0  0  0
 33 35  1  0  0  0
 24 25  1  0  0  0
 25 26  2  0  0  0
 17 18  1  0  0  0
 18 19  2  0  0  0
 19 14  1  0  0  0
 11  1  1  0  0  0
 26 21  1  0  0  0
  9  3  1  0  0  0
 35 30  1  0  0  0
 13 20  1  0  0  0
  6 12  1  0  0  0
M  END
> <minimizedAffinity>
-9.54904

$$$$
CMP_0


 35 39  0  0  0  0  0  0  0  0999 V2000
   38.0584   -0.4158   17.6957 C   0  0  0  0  0  0  0  0  0  0  0  0
   38.7367    1.1506   17.0511 S   0  0  0  0  0  0  0  0  0  0  0  0
   37.2280    1.6576   16.2259 C   0  0  0  0  0  0  0  0  0  0  0  0
   37.3203    2.3412   15.0074 C   0  0  0  0  0  0  0  0  0  0  0  0
   36.1638    2.8175   14.3755 C   0  0  0  0  0  0  0  0  0  0  0  0
   36.2467    3.5094   13.1692 O   0  0  0  0  0  0  0  0  0  0  0  0
   34.9140    2.6016   14.9631 C   0  0  0  0  0  0  0  0  0  0  0  0
   34.8165    1.8962   16.1652 C   0  0  0  0  0  0  0  0  0  0  0  0
   35.9659    1.4018   16.7924 C   0  0  0  0  0  0  0  0  0  0  0  0
   35.8105    0.5963   17.9286 O   0  0  0  0  0  0  0  0  0  0  0  0
   36.8641   -0.0769   18.6311 C   0  0  0  0  0  0  0  0  0  0  0  0
   37.1376    3.6819   12.7182 H   0  0  0  0  0  0  0  0  0  0  0  0
   37.2973   -4.0896   13.3529 O   0  0  0  0  0  0  0  0  0  0  0  0
   37.4756   -3.2017   14.4113 C   0  0  0  0  0  0  0  0  0  0  0  0
   36.4089   -2.9279   15.2697 C   0  0  0  0  0  0  0  0  0  0  0  0
   36.5704   -2.0391   16.3364 C   0  0  0  0  0  0  0  0  0  0  0  0
   37.8113   -1.4047   16.5602 C   0  0  0  0  0  0  0  0  0  0  0  0
   38.8781   -1.6939   15.6892 C   0  0  0  0  0  0  0  0  0  0  0  0
   38.7124   -2.5832   14.6244 C   0  0  0  0  0  0  0  0  0  0  0  0
   38.0543   -4.3152   12.7178 H   0  0  0  0  0  0  0  0  0  0  0  0
   36.2795   -1.2516   19.4090 C   0  0  0  0  0  0  0  0  0  0  0  0
   34.8795   -1.3706   19.4922 C   0  0  0  0  0  0  0  0  0  0  0  0
   34.2880   -2.4124   20.2112 C   0  0  0  0  0  0  0  0  0  0  0  0
   35.0873   -3.3537   20.8816 C   0  0  0  0  0  0  0  0  0  0  0  0
   36.4774   -3.2284   20.8258 C   0  0  0  0  0  0  0  0  0  0  0  0
   37.0721   -2.1866   20.1091 C   0  0  0  0  0  0  0  0  0  0  0  0
   34.5439   -4.4186   21.6137 O   0  0  0  0  0  0  0  0  0  0  0  0
   33.3406   -4.3461   22.3743 C   0  0  0  0  0  0  0  0  0  0  0  0
   33.5823   -3.5695   23.6701 C   0  0  0  0  0  0  0  0  0  0  0  0
   32.3075   -3.1378   24.2798 N   0  0  0  0  0  0  0  0  0  0  0  0
   31.8748   -1.8049   23.8348 C   0  0  0  0  0  0  0  0  0  0  0  0
   31.1283   -1.1550   24.9957 C   0  0  0  0  0  0  0  0  0  0  0  0
   31.3437   -2.0741   26.1867 C   0  0  0  0  0  0  0  0  0  0  0  0
   30.1776   -2.7672   26.4693 F   0  0  0  0  0  0  0  0  0  0  0  0
   32.4217   -3.0413   25.7366 C   0  0  0  0  0  0  0  0  0  0  0  0
 13 14  1  0  0  0
 14 15  2  0  0  0
 15 16  1  0  0  0
 16 17  2  0  0  0
 17  1  1  0  0  0
  1  2  1  0  0  0
  2  3  1  0  0  0
  3  4  2  0  0  0
  4  5  1  0  0  0
  5  6  1  0  0  0
  5  7  2  0  0  0
  7  8  1  0  0  0
  8  9  2  0  0  0
  9 10  1  0  0  0
 10 11  1  0  0  0
 11 21  1  0  0  0
 21 22  2  0  0  0
 22 23  1  0  0  0
 23 24  2  0  0  0
 24 27  1  0  0  0
 27 28  1  0  0  0
 28 29  1  0  0  0
 29 30  1  0  0  0
 30 31  1  0  0  0
 31 32  1  0  0  0
 32 33  1  0  0  0
 33 34  1  0  0  0
 33 35  1  0  0  0
 24 25  1  0  0  0
 25 26  2  0  0  0
 17 18  1  0  0  0
 18 19  2  0  0  0
 19 14  1  0  0  0
 11  1  1  0  0  0
 26 21  1  0  0  0
  9  3  1  0  0  0
 35 30  1  0  0  0
 13 20  1  0  0  0
  6 12  1  0  0  0
M  END
> <minimizedAffinity>
-9.27619

$$$$
CMP_0


 35 39  0  0  0  0  0  0  0  0999 V2000
   33.0539   -2.8455   18.2750 C   0  0  0  0  0  0  0  0  0  0  0  0
   32.8230   -3.3842   16.5471 S   0  0  0  0  0  0  0  0  0  0  0  0
   34.4600   -4.0946   16.3746 C   0  0  0  0  0  0  0  0  0  0  0  0
   35.1174   -3.9879   15.1430 C   0  0  0  0  0  0  0  0  0  0  0  0
   36.3646   -4.5979   14.9529 C   0  0  0  0  0  0  0  0  0  0  0  0
   37.0206   -4.5075   13.7273 O   0  0  0  0  0  0  0  0  0  0  0  0
   36.9552   -5.3091   16.0013 C   0  0  0  0  0  0  0  0  0  0  0  0
   36.3141   -5.3945   17.2398 C   0  0  0  0  0  0  0  0  0  0  0  0
   35.0769   -4.7722   17.4422 C   0  0  0  0  0  0  0  0  0  0  0  0
   34.5305   -4.7799   18.7327 O   0  0  0  0  0  0  0  0  0  0  0  0
   33.3325   -4.1057   19.1413 C   0  0  0  0  0  0  0  0  0  0  0  0
   36.6188   -3.9993   12.9482 H   0  0  0  0  0  0  0  0  0  0  0  0
   36.7801    1.5179   18.3872 O   0  0  0  0  0  0  0  0  0  0  0  0
   35.8758    0.4586   18.3686 C   0  0  0  0  0  0  0  0  0  0  0  0
   35.8252   -0.4248   19.4487 C   0  0  0  0  0  0  0  0  0  0  0  0
   34.9240   -1.4934   19.4461 C   0  0  0  0  0  0  0  0  0  0  0  0
   34.0547   -1.6962   18.3528 C   0  0  0  0  0  0  0  0  0  0  0  0
   34.1144   -0.7952   17.2735 C   0  0  0  0  0  0  0  0  0  0  0  0
   35.0164    0.2718   17.2803 C   0  0  0  0  0  0  0  0  0  0  0  0
   36.8350    2.1807   17.6223 H   0  0  0  0  0  0  0  0  0  0  0  0
   33.3739   -3.8758   20.6487 C   0  0  0  0  0  0  0  0  0  0  0  0
   32.2810   -3.2322   21.2591 C   0  0  0  0  0  0  0  0  0  0  0  0
   32.2743   -2.9735   22.6322 C   0  0  0  0  0  0  0  0  0  0  0  0
   33.3737   -3.3388   23.4272 C   0  0  0  0  0  0  0  0  0  0  0  0
   34.4736   -3.9548   22.8255 C   0  0  0  0  0  0  0  0  0  0  0  0
   34.4843   -4.2132   21.4522 C   0  0  0  0  0  0  0  0  0  0  0  0
   33.4155   -3.1047   24.8088 O   0  0  0  0  0  0  0  0  0  0  0  0
   32.8356   -1.9744   25.4553 C   0  0  0  0  0  0  0  0  0  0  0  0
   33.1329   -2.0156   26.9555 C   0  0  0  0  0  0  0  0  0  0  0  0
   33.5132   -0.6804   27.4614 N   0  0  0  0  0  0  0  0  0  0  0  0
   32.7612    0.4139   26.8300 C   0  0  0  0  0  0  0  0  0  0  0  0
   33.6839    1.6274   26.7689 C   0  0  0  0  0  0  0  0  0  0  0  0
   35.0549    1.1204   27.1844 C   0  0  0  0  0  0  0  0  0  0  0  0
   35.3611    1.5684   28.4595 F   0  0  0  0  0  0  0  0  0  0  0  0
   34.9222   -0.3904   27.1873 C   0  0  0  0  0  0  0  0  0  0  0  0
 13 14  1  0  0  0
 14 15  2  0  0  0
 15 16  1  0  0  0
 16 17  2  0  0  0
 17  1  1  0  0  0
  1  2  1  0  0  0
  2  3  1  0  0  0
  3  4  2  0  0  0
  4  5  1  0  0  0
  5  6  1  0  0  0
  5  7  2  0  0  0
  7  8  1  0  0  0
  8  9  2  0  0  0
  9 10  1  0  0  0
 10 11  1  0  0  0
 11 21  1  0  0  0
 21 22  2  0  0  0
 22 23  1  0  0  0
 23 24  2  0  0  0
 24 27  1  0  0  0
 27 28  1  0  0  0
 28 29  1  0  0  0
 29 30  1  0  0  0
 30 31  1  0  0  0
 31 32  1  0  0  0
 32 33  1  0  0  0
 33 34  1  0  0  0
 33 35  1  0  0  0
 24 25  1  0  0  0
 25 26  2  0  0  0
 17 18  1  0  0  0
 18 19  2  0  0  0
 19 14  1  0  0  0
 11  1  1  0  0  0
 26 21  1  0  0  0
  9  3  1  0  0  0
 35 30  1  0  0  0
 13 20  1  0  0  0
  6 12  1  0  0  0
M  END
> <minimizedAffinity>
-8.71290

$$$$
CMP_0


 35 39  0  0  0  0  0  0  0  0999 V2000
   34.0082   -4.4827   20.2285 C   0  0  0  0  0  0  0  0  0  0  0  0
   35.3083   -5.1785   19.1539 S   0  0  0  0  0  0  0  0  0  0  0  0
   36.0613   -3.5997   18.7610 C   0  0  0  0  0  0  0  0  0  0  0  0
   36.5830   -3.3998   17.4771 C   0  0  0  0  0  0  0  0  0  0  0  0
   37.2452   -2.2058   17.1618 C   0  0  0  0  0  0  0  0  0  0  0  0
   37.7782   -2.0029   15.8908 O   0  0  0  0  0  0  0  0  0  0  0  0
   37.3777   -1.2094   18.1331 C   0  0  0  0  0  0  0  0  0  0  0  0
   36.8345   -1.3949   19.4070 C   0  0  0  0  0  0  0  0  0  0  0  0
   36.1559   -2.5775   19.7230 C   0  0  0  0  0  0  0  0  0  0  0  0
   35.5224   -2.6691   20.9698 O   0  0  0  0  0  0  0  0  0  0  0  0
   34.6998   -3.7559   21.4158 C   0  0  0  0  0  0  0  0  0  0  0  0
   37.6986   -2.7057   15.1652 H   0  0  0  0  0  0  0  0  0  0  0  0
   30.0578   -1.6083   17.2172 O   0  0  0  0  0  0  0  0  0  0  0  0
   31.0224   -2.2999   17.9462 C   0  0  0  0  0  0  0  0  0  0  0  0
   32.3738   -2.1265   17.6411 C   0  0  0  0  0  0  0  0  0  0  0  0
   33.3549   -2.8130   18.3623 C   0  0  0  0  0  0  0  0  0  0  0  0
   32.9946   -3.6919   19.4064 C   0  0  0  0  0  0  0  0  0  0  0  0
   31.6289   -3.8532   19.7049 C   0  0  0  0  0  0  0  0  0  0  0  0
   30.6516   -3.1646   18.9817 C   0  0  0  0  0  0  0  0  0  0  0  0
   29.0695   -1.7066   17.4200 H   0  0  0  0  0  0  0  0  0  0  0  0
   33.7709   -3.2631   22.5208 C   0  0  0  0  0  0  0  0  0  0  0  0
   33.8984   -3.8258   23.8046 C   0  0  0  0  0  0  0  0  0  0  0  0
   33.0590   -3.4307   24.8494 C   0  0  0  0  0  0  0  0  0  0  0  0
   32.0563   -2.4715   24.6285 C   0  0  0  0  0  0  0  0  0  0  0  0
   31.9058   -1.9266   23.3511 C   0  0  0  0  0  0  0  0  0  0  0  0
   32.7424   -2.3210   22.3035 C   0  0  0  0  0  0  0  0  0  0  0  0
   31.1908   -2.0388   25.6428 O   0  0  0  0  0  0  0  0  0  0  0  0
   30.9915   -0.6757   26.0088 C   0  0  0  0  0  0  0  0  0  0  0  0
   31.2752   -0.4837   27.4999 C   0  0  0  0  0  0  0  0  0  0  0  0
   32.5407    0.2488   27.7128 N   0  0  0  0  0  0  0  0  0  0  0  0
   32.9120    1.1056   26.5772 C   0  0  0  0  0  0  0  0  0  0  0  0
   34.4357    1.1414   26.5101 C   0  0  0  0  0  0  0  0  0  0  0  0
   34.9139    0.0997   27.5079 C   0  0  0  0  0  0  0  0  0  0  0  0
   35.4399    0.7215   28.6290 F   0  0  0  0  0  0  0  0  0  0  0  0
   33.6651   -0.6735   27.8857 C   0  0  0  0  0  0  0  0  0  0  0  0
 13 14  1  0  0  0
 14 15  2  0  0  0
 15 16  1  0  0  0
 16 17  2  0  0  0
 17  1  1  0  0  0
  1  2  1  0  0  0
  2  3  1  0  0  0
  3  4  2  0  0  0
  4  5  1  0  0  0
  5  6  1  0  0  0
  5  7  2  0  0  0
  7  8  1  0  0  0
  8  9  2  0  0  0
  9 10  1  0  0  0
 10 11  1  0  0  0
 11 21  1  0  0  0
 21 22  2  0  0  0
 22 23  1  0  0  0
 23 24  2  0  0  0
 24 27  1  0  0  0
 27 28  1  0  0  0
 28 29  1  0  0  0
 29 30  1  0  0  0
 30 31  1  0  0  0
 31 32  1  0  0  0
 32 33  1  0  0  0
 33 34  1  0  0  0
 33 35  1  0  0  0
 24 25  1  0  0  0
 25 26  2  0  0  0
 17 18  1  0  0  0
 18 19  2  0  0  0
 19 14  1  0  0  0
 11  1  1  0  0  0
 26 21  1  0  0  0
  9  3  1  0  0  0
 35 30  1  0  0  0
 13 20  1  0  0  0
  6 12  1  0  0  0
M  END
> <minimizedAffinity>
-8.66961

$$$$
CMP_0


 35 39  0  0  0  0  0  0  0  0999 V2000
   37.5331    0.4986   18.4127 C   0  0  0  0  0  0  0  0  0  0  0  0
   37.9400    2.2770   18.4373 S   0  0  0  0  0  0  0  0  0  0  0  0
   36.8887    2.7069   17.0503 C   0  0  0  0  0  0  0  0  0  0  0  0
   37.3150    3.7007   16.1607 C   0  0  0  0  0  0  0  0  0  0  0  0
   36.4833    4.1129   15.1109 C   0  0  0  0  0  0  0  0  0  0  0  0
   36.8939    5.1094   14.2282 O   0  0  0  0  0  0  0  0  0  0  0  0
   35.2264    3.5230   14.9499 C   0  0  0  0  0  0  0  0  0  0  0  0
   34.8093    2.5122   15.8197 C   0  0  0  0  0  0  0  0  0  0  0  0
   35.6424    2.0828   16.8591 C   0  0  0  0  0  0  0  0  0  0  0  0
   35.2351    0.9848   17.6289 O   0  0  0  0  0  0  0  0  0  0  0  0
   36.0054    0.3486   18.6578 C   0  0  0  0  0  0  0  0  0  0  0  0
   37.7989    5.5562   14.3184 H   0  0  0  0  0  0  0  0  0  0  0  0
   39.9062   -1.9268   13.7844 O   0  0  0  0  0  0  0  0  0  0  0  0
   39.3242   -1.3443   14.9078 C   0  0  0  0  0  0  0  0  0  0  0  0
   37.9698   -1.5571   15.1723 C   0  0  0  0  0  0  0  0  0  0  0  0
   37.3697   -0.9797   16.2950 C   0  0  0  0  0  0  0  0  0  0  0  0
   38.1220   -0.1728   17.1754 C   0  0  0  0  0  0  0  0  0  0  0  0
   39.4867    0.0291   16.8980 C   0  0  0  0  0  0  0  0  0  0  0  0
   40.0827   -0.5502   15.7749 C   0  0  0  0  0  0  0  0  0  0  0  0
   40.8885   -1.7979   13.5700 H   0  0  0  0  0  0  0  0  0  0  0  0
   35.5039   -1.0788   18.8518 C   0  0  0  0  0  0  0  0  0  0  0  0
   36.2694   -1.9570   19.6418 C   0  0  0  0  0  0  0  0  0  0  0  0
   35.8718   -3.2824   19.8347 C   0  0  0  0  0  0  0  0  0  0  0  0
   34.7026   -3.7672   19.2245 C   0  0  0  0  0  0  0  0  0  0  0  0
   33.9505   -2.9099   18.4179 C   0  0  0  0  0  0  0  0  0  0  0  0
   34.3465   -1.5842   18.2214 C   0  0  0  0  0  0  0  0  0  0  0  0
   34.2586   -5.0868   19.3884 O   0  0  0  0  0  0  0  0  0  0  0  0
   33.8966   -5.9569   18.3190 C   0  0  0  0  0  0  0  0  0  0  0  0
   35.1285   -6.2998   17.4789 C   0  0  0  0  0  0  0  0  0  0  0  0
   34.9775   -5.8207   16.0893 N   0  0  0  0  0  0  0  0  0  0  0  0
   35.7820   -4.6250   15.7984 C   0  0  0  0  0  0  0  0  0  0  0  0
   35.0163   -3.7972   14.7708 C   0  0  0  0  0  0  0  0  0  0  0  0
   33.6497   -4.4518   14.6542 C   0  0  0  0  0  0  0  0  0  0  0  0
   33.5499   -5.1330   13.4517 F   0  0  0  0  0  0  0  0  0  0  0  0
   33.5933   -5.4336   15.8088 C   0  0  0  0  0  0  0  0  0  0  0  0
 13 14  1  0  0  0
 14 15  2  0  0  0
 15 16  1  0  0  0
 16 17  2  0  0  0
 17  1  1  0  0  0
  1  2  1  0  0  0
  2  3  1  0  0  0
  3  4  2  0  0  0
  4  5  1  0  0  0
  5  6  1  0  0  0
  5  7  2  0  0  0
  7  8  1  0  0  0
  8  9  2  0  0  0
  9 10  1  0  0  0
 10 11  1  0  0  0
 11 21  1  0  0  0
 21 22  2  0  0  0
 22 23  1  0  0  0
 23 24  2  0  0  0
 24 27  1  0  0  0
 27 28  1  0  0  0
 28 29  1  0  0  0
 29 30  1  0  0  0
 30 31  1  0  0  0
 31 32  1  0  0  0
 32 33  1  0  0  0
 33 34  1  0  0  0
 33 35  1  0  0  0
 24 25  1  0  0  0
 25 26  2  0  0  0
 17 18  1  0  0  0
 18 19  2  0  0  0
 19 14  1  0  0  0
 11  1  1  0  0  0
 26 21  1  0  0  0
  9  3  1  0  0  0
 35 30  1  0  0  0
 13 20  1  0  0  0
  6 12  1  0  0  0
M  END
> <minimizedAffinity>
-8.66263

$$$$
CMP_0


 35 39  0  0  0  0  0  0  0  0999 V2000
   38.1036   -1.1291   17.0511 C   0  0  0  0  0  0  0  0  0  0  0  0
   39.0159    0.1304   16.0970 S   0  0  0  0  0  0  0  0  0  0  0  0
   37.5642    1.0813   15.6470 C   0  0  0  0  0  0  0  0  0  0  0  0
   37.5149    1.6838   14.3839 C   0  0  0  0  0  0  0  0  0  0  0  0
   36.4289    2.4958   14.0307 C   0  0  0  0  0  0  0  0  0  0  0  0
   36.3769    3.1092   12.7810 O   0  0  0  0  0  0  0  0  0  0  0  0
   35.3889    2.6976   14.9425 C   0  0  0  0  0  0  0  0  0  0  0  0
   35.4222    2.0760   16.1934 C   0  0  0  0  0  0  0  0  0  0  0  0
   36.4950    1.2490   16.5458 C   0  0  0  0  0  0  0  0  0  0  0  0
   36.4269    0.5502   17.7586 O   0  0  0  0  0  0  0  0  0  0  0  0
   37.3793   -0.4147   18.2264 C   0  0  0  0  0  0  0  0  0  0  0  0
   37.1149    2.9825   12.0982 H   0  0  0  0  0  0  0  0  0  0  0  0
   34.8008   -4.4147   13.6996 O   0  0  0  0  0  0  0  0  0  0  0  0
   35.6074   -3.6154   14.5063 C   0  0  0  0  0  0  0  0  0  0  0  0
   36.9355   -3.3852   14.1420 C   0  0  0  0  0  0  0  0  0  0  0  0
   37.7589   -2.5859   14.9402 C   0  0  0  0  0  0  0  0  0  0  0  0
   37.2617   -2.0024   16.1253 C   0  0  0  0  0  0  0  0  0  0  0  0
   35.9201   -2.2400   16.4771 C   0  0  0  0  0  0  0  0  0  0  0  0
   35.1004   -3.0392   15.6762 C   0  0  0  0  0  0  0  0  0  0  0  0
   33.8307   -4.5936   13.9327 H   0  0  0  0  0  0  0  0  0  0  0  0
   36.7082   -1.3312   19.2444 C   0  0  0  0  0  0  0  0  0  0  0  0
   35.3698   -1.0756   19.5971 C   0  0  0  0  0  0  0  0  0  0  0  0
   34.7114   -1.8671   20.5417 C   0  0  0  0  0  0  0  0  0  0  0  0
   35.3856   -2.9269   21.1714 C   0  0  0  0  0  0  0  0  0  0  0  0
   36.7220   -3.1718   20.8464 C   0  0  0  0  0  0  0  0  0  0  0  0
   37.3839   -2.3808   19.9035 C   0  0  0  0  0  0  0  0  0  0  0  0
   34.7702   -3.7522   22.1229 O   0  0  0  0  0  0  0  0  0  0  0  0
   33.4050   -4.1594   22.0781 C   0  0  0  0  0  0  0  0  0  0  0  0
   33.0332   -4.6008   20.6611 C   0  0  0  0  0  0  0  0  0  0  0  0
   32.2149   -3.5763   19.9800 N   0  0  0  0  0  0  0  0  0  0  0  0
   30.7900   -3.6422   20.3364 C   0  0  0  0  0  0  0  0  0  0  0  0
   29.9918   -3.1986   19.1143 C   0  0  0  0  0  0  0  0  0  0  0  0
   31.0009   -3.0914   17.9831 C   0  0  0  0  0  0  0  0  0  0  0  0
   31.2491   -1.7595   17.6921 F   0  0  0  0  0  0  0  0  0  0  0  0
   32.2583   -3.7431   18.5257 C   0  0  0  0  0  0  0  0  0  0  0  0
 13 14  1  0  0  0
 14 15  2  0  0  0
 15 16  1  0  0  0
 16 17  2  0  0  0
 17  1  1  0  0  0
  1  2  1  0  0  0
  2  3  1  0  0  0
  3  4  2  0  0  0
  4  5  1  0  0  0
  5  6  1  0  0  0
  5  7  2  0  0  0
  7  8  1  0  0  0
  8  9  2  0  0  0
  9 10  1  0  0  0
 10 11  1  0  0  0
 11 21  1  0  0  0
 21 22  2  0  0  0
 22 23  1  0  0  0
 23 24  2  0  0  0
 24 27  1  0  0  0
 27 28  1  0  0  0
 28 29  1  0  0  0
 29 30  1  0  0  0
 30 31  1  0  0  0
 31 32  1  0  0  0
 32 33  1  0  0  0
 33 34  1  0  0  0
 33 35  1  0  0  0
 24 25  1  0  0  0
 25 26  2  0  0  0
 17 18  1  0  0  0
 18 19  2  0  0  0
 19 14  1  0  0  0
 11  1  1  0  0  0
 26 21  1  0  0  0
  9  3  1  0  0  0
 35 30  1  0  0  0
 13 20  1  0  0  0
  6 12  1  0  0  0
M  END
> <minimizedAffinity>
-8.61347

$$$$
CMP_0


 35 39  0  0  0  0  0  0  0  0999 V2000
   36.0382   -0.9806   15.5192 C   0  0  0  0  0  0  0  0  0  0  0  0
   36.8685   -0.6350   13.9318 S   0  0  0  0  0  0  0  0  0  0  0  0
   38.4496   -1.3265   14.4176 C   0  0  0  0  0  0  0  0  0  0  0  0
   39.6240   -0.7202   13.9550 C   0  0  0  0  0  0  0  0  0  0  0  0
   40.8731   -1.2805   14.2540 C   0  0  0  0  0  0  0  0  0  0  0  0
   42.0463   -0.6913   13.7880 O   0  0  0  0  0  0  0  0  0  0  0  0
   40.9439   -2.4456   15.0231 C   0  0  0  0  0  0  0  0  0  0  0  0
   39.7753   -3.0377   15.5087 C   0  0  0  0  0  0  0  0  0  0  0  0
   38.5255   -2.4731   15.2293 C   0  0  0  0  0  0  0  0  0  0  0  0
   37.3922   -3.0291   15.8380 O   0  0  0  0  0  0  0  0  0  0  0  0
   36.0553   -2.5178   15.7494 C   0  0  0  0  0  0  0  0  0  0  0  0
   42.0282    0.1533   13.2285 H   0  0  0  0  0  0  0  0  0  0  0  0
   38.1332    2.5100   19.5644 O   0  0  0  0  0  0  0  0  0  0  0  0
   37.6231    1.6569   18.5886 C   0  0  0  0  0  0  0  0  0  0  0  0
   37.6305    0.2775   18.8054 C   0  0  0  0  0  0  0  0  0  0  0  0
   37.1229   -0.5929   17.8366 C   0  0  0  0  0  0  0  0  0  0  0  0
   36.5982   -0.0917   16.6259 C   0  0  0  0  0  0  0  0  0  0  0  0
   36.5937    1.3009   16.4236 C   0  0  0  0  0  0  0  0  0  0  0  0
   37.1017    2.1674   17.3948 C   0  0  0  0  0  0  0  0  0  0  0  0
   38.1342    3.5159   19.4400 H   0  0  0  0  0  0  0  0  0  0  0  0
   35.2457   -3.0168   16.9420 C   0  0  0  0  0  0  0  0  0  0  0  0
   33.9686   -2.4678   17.1624 C   0  0  0  0  0  0  0  0  0  0  0  0
   33.1918   -2.8690   18.2524 C   0  0  0  0  0  0  0  0  0  0  0  0
   33.6845   -3.8206   19.1612 C   0  0  0  0  0  0  0  0  0  0  0  0
   34.9613   -4.3519   18.9645 C   0  0  0  0  0  0  0  0  0  0  0  0
   35.7415   -3.9513   17.8765 C   0  0  0  0  0  0  0  0  0  0  0  0
   32.9446   -4.2590   20.2683 O   0  0  0  0  0  0  0  0  0  0  0  0
   32.4843   -3.4134   21.3194 C   0  0  0  0  0  0  0  0  0  0  0  0
   32.9730   -3.9390   22.6706 C   0  0  0  0  0  0  0  0  0  0  0  0
   33.0585   -2.8517   23.6674 N   0  0  0  0  0  0  0  0  0  0  0  0
   32.9924   -3.3320   25.0554 C   0  0  0  0  0  0  0  0  0  0  0  0
   32.3024   -2.2506   25.8814 C   0  0  0  0  0  0  0  0  0  0  0  0
   31.7814   -1.2374   24.8756 C   0  0  0  0  0  0  0  0  0  0  0  0
   32.5517   -0.0863   24.9180 F   0  0  0  0  0  0  0  0  0  0  0  0
   31.9414   -1.9150   23.5283 C   0  0  0  0  0  0  0  0  0  0  0  0
 13 14  1  0  0  0
 14 15  2  0  0  0
 15 16  1  0  0  0
 16 17  2  0  0  0
 17  1  1  0  0  0
  1  2  1  0  0  0
  2  3  1  0  0  0
  3  4  2  0  0  0
  4  5  1  0  0  0
  5  6  1  0  0  0
  5  7  2  0  0  0
  7  8  1  0  0  0
  8  9  2  0  0  0
  9 10  1  0  0  0
 10 11  1  0  0  0
 11 21  1  0  0  0
 21 22  2  0  0  0
 22 23  1  0  0  0
 23 24  2  0  0  0
 24 27  1  0  0  0
 27 28  1  0  0  0
 28 29  1  0  0  0
 29 30  1  0  0  0
 30 31  1  0  0  0
 31 32  1  0  0  0
 32 33  1  0  0  0
 33 34  1  0  0  0
 33 35  1  0  0  0
 24 25  1  0  0  0
 25 26  2  0  0  0
 17 18  1  0  0  0
 18 19  2  0  0  0
 19 14  1  0  0  0
 11  1  1  0  0  0
 26 21  1  0  0  0
  9  3  1  0  0  0
 35 30  1  0  0  0
 13 20  1  0  0  0
  6 12  1  0  0  0
M  END
> <minimizedAffinity>
-8.52806

$$$$
CMP_0


 35 39  0  0  0  0  0  0  0  0999 V2000
   36.9458   -4.0810   18.7263 C   0  0  0  0  0  0  0  0  0  0  0  0
   38.2995   -3.6374   17.5862 S   0  0  0  0  0  0  0  0  0  0  0  0
   37.3486   -2.4317   16.6609 C   0  0  0  0  0  0  0  0  0  0  0  0
   37.5663   -2.3117   15.2829 C   0  0  0  0  0  0  0  0  0  0  0  0
   36.8948   -1.3278   14.5449 C   0  0  0  0  0  0  0  0  0  0  0  0
   37.1141   -1.1929   13.1758 O   0  0  0  0  0  0  0  0  0  0  0  0
   35.9996   -0.4687   15.1886 C   0  0  0  0  0  0  0  0  0  0  0  0
   35.7601   -0.6036   16.5585 C   0  0  0  0  0  0  0  0  0  0  0  0
   36.4134   -1.5960   17.2982 C   0  0  0  0  0  0  0  0  0  0  0  0
   36.0510   -1.7737   18.6403 O   0  0  0  0  0  0  0  0  0  0  0  0
   36.5371   -2.8036   19.5120 C   0  0  0  0  0  0  0  0  0  0  0  0
   37.7566   -1.8000   12.6804 H   0  0  0  0  0  0  0  0  0  0  0  0
   32.9450   -7.0099   15.8364 O   0  0  0  0  0  0  0  0  0  0  0  0
   33.9106   -6.2980   16.5444 C   0  0  0  0  0  0  0  0  0  0  0  0
   33.5149   -5.3851   17.5240 C   0  0  0  0  0  0  0  0  0  0  0  0
   34.4706   -4.6621   18.2436 C   0  0  0  0  0  0  0  0  0  0  0  0
   35.8474   -4.8422   17.9897 C   0  0  0  0  0  0  0  0  0  0  0  0
   36.2308   -5.7687   17.0024 C   0  0  0  0  0  0  0  0  0  0  0  0
   35.2722   -6.4896   16.2858 C   0  0  0  0  0  0  0  0  0  0  0  0
   33.2007   -7.6854   15.1253 H   0  0  0  0  0  0  0  0  0  0  0  0
   35.5388   -3.0157   20.6457 C   0  0  0  0  0  0  0  0  0  0  0  0
   35.8895   -3.8873   21.6937 C   0  0  0  0  0  0  0  0  0  0  0  0
   35.0055   -4.1386   22.7462 C   0  0  0  0  0  0  0  0  0  0  0  0
   33.7372   -3.5343   22.7656 C   0  0  0  0  0  0  0  0  0  0  0  0
   33.3708   -2.6879   21.7164 C   0  0  0  0  0  0  0  0  0  0  0  0
   34.2518   -2.4360   20.6613 C   0  0  0  0  0  0  0  0  0  0  0  0
   32.8151   -3.7506   23.7991 O   0  0  0  0  0  0  0  0  0  0  0  0
   33.0502   -3.4410   25.1704 C   0  0  0  0  0  0  0  0  0  0  0  0
   32.5235   -2.0410   25.4922 C   0  0  0  0  0  0  0  0  0  0  0  0
   31.1833   -2.1037   26.1112 N   0  0  0  0  0  0  0  0  0  0  0  0
   30.1731   -1.3197   25.3857 C   0  0  0  0  0  0  0  0  0  0  0  0
   29.1759   -0.7949   26.4142 C   0  0  0  0  0  0  0  0  0  0  0  0
   29.7771   -1.1219   27.7711 C   0  0  0  0  0  0  0  0  0  0  0  0
   29.0831   -2.1672   28.3591 F   0  0  0  0  0  0  0  0  0  0  0  0
   31.1992   -1.5534   27.4682 C   0  0  0  0  0  0  0  0  0  0  0  0
 13 14  1  0  0  0
 14 15  2  0  0  0
 15 16  1  0  0  0
 16 17  2  0  0  0
 17  1  1  0  0  0
  1  2  1  0  0  0
  2  3  1  0  0  0
  3  4  2  0  0  0
  4  5  1  0  0  0
  5  6  1  0  0  0
  5  7  2  0  0  0
  7  8  1  0  0  0
  8  9  2  0  0  0
  9 10  1  0  0  0
 10 11  1  0  0  0
 11 21  1  0  0  0
 21 22  2  0  0  0
 22 23  1  0  0  0
 23 24  2  0  0  0
 24 27  1  0  0  0
 27 28  1  0  0  0
 28 29  1  0  0  0
 29 30  1  0  0  0
 30 31  1  0  0  0
 31 32  1  0  0  0
 32 33  1  0  0  0
 33 34  1  0  0  0
 33 35  1  0  0  0
 24 25  1  0  0  0
 25 26  2  0  0  0
 17 18  1  0  0  0
 18 19  2  0  0  0
 19 14  1  0  0  0
 11  1  1  0  0  0
 26 21  1  0  0  0
  9  3  1  0  0  0
 35 30  1  0  0  0
 13 20  1  0  0  0
  6 12  1  0  0  0
M  END
> <minimizedAffinity>
-8.50528

$$$$
CMP_0


 35 39  0  0  0  0  0  0  0  0999 V2000
   37.4150   -3.3175   18.2572 C   0  0  0  0  0  0  0  0  0  0  0  0
   38.8949   -2.6729   17.4067 S   0  0  0  0  0  0  0  0  0  0  0  0
   38.1591   -1.0994   16.9631 C   0  0  0  0  0  0  0  0  0  0  0  0
   38.4964   -0.5170   15.7353 C   0  0  0  0  0  0  0  0  0  0  0  0
   37.9982    0.7471   15.3925 C   0  0  0  0  0  0  0  0  0  0  0  0
   38.3380    1.3398   14.1785 O   0  0  0  0  0  0  0  0  0  0  0  0
   37.1557    1.4238   16.2793 C   0  0  0  0  0  0  0  0  0  0  0  0
   36.7957    0.8335   17.4934 C   0  0  0  0  0  0  0  0  0  0  0  0
   37.2749   -0.4366   17.8339 C   0  0  0  0  0  0  0  0  0  0  0  0
   36.7906   -1.0401   19.0024 O   0  0  0  0  0  0  0  0  0  0  0  0
   37.0896   -2.3707   19.4463 C   0  0  0  0  0  0  0  0  0  0  0  0
   38.9463    0.8750   13.5146 H   0  0  0  0  0  0  0  0  0  0  0  0
   33.3490   -4.4950   14.3820 O   0  0  0  0  0  0  0  0  0  0  0  0
   34.3298   -4.2074   15.3283 C   0  0  0  0  0  0  0  0  0  0  0  0
   34.0364   -3.3442   16.3859 C   0  0  0  0  0  0  0  0  0  0  0  0
   35.0090   -3.0445   17.3441 C   0  0  0  0  0  0  0  0  0  0  0  0
   36.3005   -3.6072   17.2560 C   0  0  0  0  0  0  0  0  0  0  0  0
   36.5799   -4.4785   16.1869 C   0  0  0  0  0  0  0  0  0  0  0  0
   35.6046   -4.7757   15.2315 C   0  0  0  0  0  0  0  0  0  0  0  0
   33.5286   -5.1240   13.6077 H   0  0  0  0  0  0  0  0  0  0  0  0
   35.9880   -2.8463   20.3879 C   0  0  0  0  0  0  0  0  0  0  0  0
   34.7363   -2.2047   20.3340 C   0  0  0  0  0  0  0  0  0  0  0  0
   33.6976   -2.5818   21.1890 C   0  0  0  0  0  0  0  0  0  0  0  0
   33.8936   -3.6027   22.1343 C   0  0  0  0  0  0  0  0  0  0  0  0
   35.1405   -4.2275   22.2123 C   0  0  0  0  0  0  0  0  0  0  0  0
   36.1820   -3.8514   21.3599 C   0  0  0  0  0  0  0  0  0  0  0  0
   32.8839   -4.0205   23.0125 O   0  0  0  0  0  0  0  0  0  0  0  0
   32.8383   -3.7037   24.4015 C   0  0  0  0  0  0  0  0  0  0  0  0
   32.0841   -2.3903   24.6179 C   0  0  0  0  0  0  0  0  0  0  0  0
   32.9633   -1.3607   25.2096 N   0  0  0  0  0  0  0  0  0  0  0  0
   33.3904   -1.6816   26.5794 C   0  0  0  0  0  0  0  0  0  0  0  0
   33.5474   -0.3630   27.3305 C   0  0  0  0  0  0  0  0  0  0  0  0
   32.9817    0.7036   26.4075 C   0  0  0  0  0  0  0  0  0  0  0  0
   34.0104    1.4574   25.8654 F   0  0  0  0  0  0  0  0  0  0  0  0
   32.2770   -0.0708   25.3103 C   0  0  0  0  0  0  0  0  0  0  0  0
 13 14  1  0  0  0
 14 15  2  0  0  0
 15 16  1  0  0  0
 16 17  2  0  0  0
 17  1  1  0  0  0
  1  2  1  0  0  0
  2  3  1  0  0  0
  3  4  2  0  0  0
  4  5  1  0  0  0
  5  6  1  0  0  0
  5  7  2  0  0  0
  7  8  1  0  0  0
  8  9  2  0  0  0
  9 10  1  0  0  0
 10 11  1  0  0  0
 11 21  1  0  0  0
 21 22  2  0  0  0
 22 23  1  0  0  0
 23 24  2  0  0  0
 24 27  1  0  0  0
 27 28  1  0  0  0
 28 29  1  0  0  0
 29 30  1  0  0  0
 30 31  1  0  0  0
 31 32  1  0  0  0
 32 33  1  0  0  0
 33 34  1  0  0  0
 33 35  1  0  0  0
 24 25  1  0  0  0
 25 26  2  0  0  0
 17 18  1  0  0  0
 18 19  2  0  0  0
 19 14  1  0  0  0
 11  1  1  0  0  0
 26 21  1  0  0  0
  9  3  1  0  0  0
 35 30  1  0  0  0
 13 20  1  0  0  0
  6 12  1  0  0  0
M  END
> <minimizedAffinity>
-8.46058

$$$$
CMP_0


 35 39  0  0  0  0  0  0  0  0999 V2000
   36.2518   -3.1540   17.7823 C   0  0  0  0  0  0  0  0  0  0  0  0
   37.1741   -2.5539   16.3184 S   0  0  0  0  0  0  0  0  0  0  0  0
   36.3888   -0.9413   16.1083 C   0  0  0  0  0  0  0  0  0  0  0  0
   36.5180   -0.3134   14.8620 C   0  0  0  0  0  0  0  0  0  0  0  0
   35.9189    0.9269   14.6232 C   0  0  0  0  0  0  0  0  0  0  0  0
   36.0687    1.5352   13.3789 O   0  0  0  0  0  0  0  0  0  0  0  0
   35.1736    1.5440   15.6341 C   0  0  0  0  0  0  0  0  0  0  0  0
   35.0248    0.9189   16.8737 C   0  0  0  0  0  0  0  0  0  0  0  0
   35.6254   -0.3209   17.1210 C   0  0  0  0  0  0  0  0  0  0  0  0
   35.3961   -0.9296   18.3572 O   0  0  0  0  0  0  0  0  0  0  0  0
   36.1366   -2.0437   18.8432 C   0  0  0  0  0  0  0  0  0  0  0  0
   35.6463    2.4334   13.1743 H   0  0  0  0  0  0  0  0  0  0  0  0
   31.2694   -5.7832   16.7067 O   0  0  0  0  0  0  0  0  0  0  0  0
   32.4770   -5.1314   16.9455 C   0  0  0  0  0  0  0  0  0  0  0  0
   32.6745   -3.8136   16.5176 C   0  0  0  0  0  0  0  0  0  0  0  0
   33.8889   -3.1666   16.7646 C   0  0  0  0  0  0  0  0  0  0  0  0
   34.9318   -3.8327   17.4386 C   0  0  0  0  0  0  0  0  0  0  0  0
   34.7164   -5.1571   17.8674 C   0  0  0  0  0  0  0  0  0  0  0  0
   33.5003   -5.7994   17.6206 C   0  0  0  0  0  0  0  0  0  0  0  0
   30.5075   -5.3250   16.2203 H   0  0  0  0  0  0  0  0  0  0  0  0
   35.5238   -2.5609   20.1268 C   0  0  0  0  0  0  0  0  0  0  0  0
   34.1813   -2.2927   20.4489 C   0  0  0  0  0  0  0  0  0  0  0  0
   33.6122   -2.8262   21.6078 C   0  0  0  0  0  0  0  0  0  0  0  0
   34.3647   -3.6409   22.4603 C   0  0  0  0  0  0  0  0  0  0  0  0
   35.7050   -3.9214   22.1354 C   0  0  0  0  0  0  0  0  0  0  0  0
   36.2753   -3.3894   20.9753 C   0  0  0  0  0  0  0  0  0  0  0  0
   33.7462   -4.1513   23.6107 O   0  0  0  0  0  0  0  0  0  0  0  0
   32.6292   -3.5487   24.2604 C   0  0  0  0  0  0  0  0  0  0  0  0
   32.9505   -3.3227   25.7375 C   0  0  0  0  0  0  0  0  0  0  0  0
   32.3592   -2.0595   26.2226 N   0  0  0  0  0  0  0  0  0  0  0  0
   32.9844   -1.6234   27.4735 C   0  0  0  0  0  0  0  0  0  0  0  0
   32.7965   -0.1177   27.5533 C   0  0  0  0  0  0  0  0  0  0  0  0
   32.5556    0.3321   26.1202 C   0  0  0  0  0  0  0  0  0  0  0  0
   33.5595    1.1882   25.6972 F   0  0  0  0  0  0  0  0  0  0  0  0
   32.5504   -0.9439   25.2881 C   0  0  0  0  0  0  0  0  0  0  0  0
 13 14  1  0  0  0
 14 15  2  0  0  0
 15 16  1  0  0  0
 16 17  2  0  0  0
 17  1  1  0  0  0
  1  2  1  0  0  0
  2  3  1  0  0  0
  3  4  2  0  0  0
  4  5  1  0  0  0
  5  6  1  0  0  0
  5  7  2  0  0  0
  7  8  1  0  0  0
  8  9  2  0  0  0
  9 10  1  0  0  0
 10 11  1  0  0  0
 11 21  1  0  0  0
 21 22  2  0  0  0
 22 23  1  0  0  0
 23 24  2  0  0  0
 24 27  1  0  0  0
 27 28  1  0  0  0
 28 29  1  0  0  0
 29 30  1  0  0  0
 30 31  1  0  0  0
 31 32  1  0  0  0
 32 33  1  0  0  0
 33 34  1  0  0  0
 33 35  1  0  0  0
 24 25  1  0  0  0
 25 26  2  0  0  0
 17 18  1  0  0  0
 18 19  2  0  0  0
 19 14  1  0  0  0
 11  1  1  0  0  0
 26 21  1  0  0  0
  9  3  1  0  0  0
 35 30  1  0  0  0
 13 20  1  0  0  0
  6 12  1  0  0  0
M  END
> <minimizedAffinity>
-9.12942

$$$$
CMP_0


 35 39  0  0  0  0  0  0  0  0999 V2000
   37.6096   -1.1677   17.2565 C   0  0  0  0  0  0  0  0  0  0  0  0
   38.4283    0.0436   16.1536 S   0  0  0  0  0  0  0  0  0  0  0  0
   37.0279    1.1302   15.8080 C   0  0  0  0  0  0  0  0  0  0  0  0
   37.1152    1.9651   14.6856 C   0  0  0  0  0  0  0  0  0  0  0  0
   36.0599    2.8173   14.3474 C   0  0  0  0  0  0  0  0  0  0  0  0
   36.1736    3.6441   13.2319 O   0  0  0  0  0  0  0  0  0  0  0  0
   34.9000    2.8305   15.1301 C   0  0  0  0  0  0  0  0  0  0  0  0
   34.7964    1.9904   16.2404 C   0  0  0  0  0  0  0  0  0  0  0  0
   35.8508    1.1377   16.5873 C   0  0  0  0  0  0  0  0  0  0  0  0
   35.6721    0.2760   17.6721 O   0  0  0  0  0  0  0  0  0  0  0  0
   36.7285   -0.4473   18.2939 C   0  0  0  0  0  0  0  0  0  0  0  0
   35.4263    4.2723   12.9600 H   0  0  0  0  0  0  0  0  0  0  0  0
   34.9896   -5.5492   14.6425 O   0  0  0  0  0  0  0  0  0  0  0  0
   35.6171   -4.4689   15.2586 C   0  0  0  0  0  0  0  0  0  0  0  0
   35.0541   -3.1889   15.2031 C   0  0  0  0  0  0  0  0  0  0  0  0
   35.6897   -2.1115   15.8273 C   0  0  0  0  0  0  0  0  0  0  0  0
   36.9071   -2.2964   16.5123 C   0  0  0  0  0  0  0  0  0  0  0  0
   37.4590   -3.5915   16.5635 C   0  0  0  0  0  0  0  0  0  0  0  0
   36.8194   -4.6661   15.9404 C   0  0  0  0  0  0  0  0  0  0  0  0
   34.1160   -5.4384   14.1410 H   0  0  0  0  0  0  0  0  0  0  0  0
   36.1712   -1.4125   19.3179 C   0  0  0  0  0  0  0  0  0  0  0  0
   34.7839   -1.5774   19.4792 C   0  0  0  0  0  0  0  0  0  0  0  0
   34.2841   -2.5150   20.3864 C   0  0  0  0  0  0  0  0  0  0  0  0
   35.1541   -3.3089   21.1412 C   0  0  0  0  0  0  0  0  0  0  0  0
   36.5430   -3.1552   20.9741 C   0  0  0  0  0  0  0  0  0  0  0  0
   37.0444   -2.2186   20.0657 C   0  0  0  0  0  0  0  0  0  0  0  0
   34.6014   -4.2348   22.0377 O   0  0  0  0  0  0  0  0  0  0  0  0
   33.4026   -4.0222   22.7796 C   0  0  0  0  0  0  0  0  0  0  0  0
   33.7464   -3.6340   24.2174 C   0  0  0  0  0  0  0  0  0  0  0  0
   32.9638   -2.4598   24.6523 N   0  0  0  0  0  0  0  0  0  0  0  0
   32.0829   -1.9804   23.5846 C   0  0  0  0  0  0  0  0  0  0  0  0
   30.9364   -1.2478   24.2612 C   0  0  0  0  0  0  0  0  0  0  0  0
   30.9030   -1.7840   25.6843 C   0  0  0  0  0  0  0  0  0  0  0  0
   29.7062   -2.4347   25.9376 F   0  0  0  0  0  0  0  0  0  0  0  0
   32.0738   -2.7536   25.7820 C   0  0  0  0  0  0  0  0  0  0  0  0
 13 14  1  0  0  0
 14 15  2  0  0  0
 15 16  1  0  0  0
 16 17  2  0  0  0
 17  1  1  0  0  0
  1  2  1  0  0  0
  2  3  1  0  0  0
  3  4  2  0  0  0
  4  5  1  0  0  0
  5  6  1  0  0  0
  5  7  2  0  0  0
  7  8  1  0  0  0
  8  9  2  0  0  0
  9 10  1  0  0  0
 10 11  1  0  0  0
 11 21  1  0  0  0
 21 22  2  0  0  0
 22 23  1  0  0  0
 23 24  2  0  0  0
 24 27  1  0  0  0
 27 28  1  0  0  0
 28 29  1  0  0  0
 29 30  1  0  0  0
 30 31  1  0  0  0
 31 32  1  0  0  0
 32 33  1  0  0  0
 33 34  1  0  0  0
 33 35  1  0  0  0
 24 25  1  0  0  0
 25 26  2  0  0  0
 17 18  1  0  0  0
 18 19  2  0  0  0
 19 14  1  0  0  0
 11  1  1  0  0  0
 26 21  1  0  0  0
  9  3  1  0  0  0
 35 30  1  0  0  0
 13 20  1  0  0  0
  6 12  1  0  0  0
M  END
> <minimizedAffinity>
-9.04628

$$$$
CMP_0


 35 39  0  0  0  0  0  0  0  0999 V2000
   36.6218   -3.1416   17.8196 C   0  0  0  0  0  0  0  0  0  0  0  0
   35.6881   -4.1418   19.0369 S   0  0  0  0  0  0  0  0  0  0  0  0
   34.0103   -3.5973   18.6499 C   0  0  0  0  0  0  0  0  0  0  0  0
   33.0176   -3.8165   19.6147 C   0  0  0  0  0  0  0  0  0  0  0  0
   31.7013   -3.4028   19.3898 C   0  0  0  0  0  0  0  0  0  0  0  0
   30.7303   -3.6395   20.3602 O   0  0  0  0  0  0  0  0  0  0  0  0
   31.3722   -2.7537   18.1945 C   0  0  0  0  0  0  0  0  0  0  0  0
   32.3574   -2.5155   17.2342 C   0  0  0  0  0  0  0  0  0  0  0  0
   33.6763   -2.9308   17.4510 C   0  0  0  0  0  0  0  0  0  0  0  0
   34.6341   -2.6153   16.4843 O   0  0  0  0  0  0  0  0  0  0  0  0
   35.9368   -3.1871   16.4411 C   0  0  0  0  0  0  0  0  0  0  0  0
   29.7678   -3.3512   20.2277 H   0  0  0  0  0  0  0  0  0  0  0  0
   37.9809    2.1851   19.4548 O   0  0  0  0  0  0  0  0  0  0  0  0
   37.6342    0.8897   19.0778 C   0  0  0  0  0  0  0  0  0  0  0  0
   36.3377    0.4070   19.2889 C   0  0  0  0  0  0  0  0  0  0  0  0
   35.9982   -0.8935   18.9043 C   0  0  0  0  0  0  0  0  0  0  0  0
   36.9560   -1.7377   18.3080 C   0  0  0  0  0  0  0  0  0  0  0  0
   38.2555   -1.2361   18.0978 C   0  0  0  0  0  0  0  0  0  0  0  0
   38.5901    0.0651   18.4814 C   0  0  0  0  0  0  0  0  0  0  0  0
   37.3095    2.8077   19.8889 H   0  0  0  0  0  0  0  0  0  0  0  0
   36.7736   -2.5053   15.3803 C   0  0  0  0  0  0  0  0  0  0  0  0
   37.9797   -3.0733   14.9321 C   0  0  0  0  0  0  0  0  0  0  0  0
   38.7116   -2.4634   13.9104 C   0  0  0  0  0  0  0  0  0  0  0  0
   38.2531   -1.2849   13.3121 C   0  0  0  0  0  0  0  0  0  0  0  0
   37.0407   -0.7199   13.7496 C   0  0  0  0  0  0  0  0  0  0  0  0
   36.3066   -1.3298   14.7708 C   0  0  0  0  0  0  0  0  0  0  0  0
   39.0252   -0.7130   12.2908 O   0  0  0  0  0  0  0  0  0  0  0  0
   39.1729    0.6895   12.0808 C   0  0  0  0  0  0  0  0  0  0  0  0
   40.0731    1.2825   13.1644 C   0  0  0  0  0  0  0  0  0  0  0  0
   39.3462    2.2848   13.9692 N   0  0  0  0  0  0  0  0  0  0  0  0
   38.1300    2.7355   13.2884 C   0  0  0  0  0  0  0  0  0  0  0  0
   37.1819    3.2272   14.3692 C   0  0  0  0  0  0  0  0  0  0  0  0
   37.6522    2.5552   15.6503 C   0  0  0  0  0  0  0  0  0  0  0  0
   36.6708    1.7187   16.1569 F   0  0  0  0  0  0  0  0  0  0  0  0
   38.8906    1.7580   15.2612 C   0  0  0  0  0  0  0  0  0  0  0  0
 13 14  1  0  0  0
 14 15  2  0  0  0
 15 16  1  0  0  0
 16 17  2  0  0  0
 17  1  1  0  0  0
  1  2  1  0  0  0
  2  3  1  0  0  0
  3  4  2  0  0  0
  4  5  1  0  0  0
  5  6  1  0  0  0
  5  7  2  0  0  0
  7  8  1  0  0  0
  8  9  2  0  0  0
  9 10  1  0  0  0
 10 11  1  0  0  0
 11 21  1  0  0  0
 21 22  2  0  0  0
 22 23  1  0  0  0
 23 24  2  0  0  0
 24 27  1  0  0  0
 27 28  1  0  0  0
 28 29  1  0  0  0
 29 30  1  0  0  0
 30 31  1  0  0  0
 31 32  1  0  0  0
 32 33  1  0  0  0
 33 34  1  0  0  0
 33 35  1  0  0  0
 24 25  1  0  0  0
 25 26  2  0  0  0
 17 18  1  0  0  0
 18 19  2  0  0  0
 19 14  1  0  0  0
 11  1  1  0  0  0
 26 21  1  0  0  0
  9  3  1  0  0  0
 35 30  1  0  0  0
 13 20  1  0  0  0
  6 12  1  0  0  0
M  END
> <minimizedAffinity>
-8.88720

$$$$
CMP_0


 35 39  0  0  0  0  0  0  0  0999 V2000
   36.6771   -2.9641   17.4979 C   0  0  0  0  0  0  0  0  0  0  0  0
   35.9107   -4.0771   18.7339 S   0  0  0  0  0  0  0  0  0  0  0  0
   34.1856   -3.5694   18.5669 C   0  0  0  0  0  0  0  0  0  0  0  0
   33.3103   -3.8890   19.6139 C   0  0  0  0  0  0  0  0  0  0  0  0
   31.9660   -3.5093   19.5601 C   0  0  0  0  0  0  0  0  0  0  0  0
   31.1134   -3.8459   20.6091 O   0  0  0  0  0  0  0  0  0  0  0  0
   31.4903   -2.7939   18.4555 C   0  0  0  0  0  0  0  0  0  0  0  0
   32.3580   -2.4560   17.4151 C   0  0  0  0  0  0  0  0  0  0  0  0
   33.7042   -2.8366   17.4605 C   0  0  0  0  0  0  0  0  0  0  0  0
   34.5417   -2.4222   16.4222 O   0  0  0  0  0  0  0  0  0  0  0  0
   35.8481   -2.9419   16.2004 C   0  0  0  0  0  0  0  0  0  0  0  0
   30.1343   -3.5846   20.6004 H   0  0  0  0  0  0  0  0  0  0  0  0
   38.0817    2.2747   19.3625 O   0  0  0  0  0  0  0  0  0  0  0  0
   37.7233    1.0002   18.9293 C   0  0  0  0  0  0  0  0  0  0  0  0
   36.4121    0.5358   19.0830 C   0  0  0  0  0  0  0  0  0  0  0  0
   36.0612   -0.7436   18.6422 C   0  0  0  0  0  0  0  0  0  0  0  0
   37.0216   -1.5849   18.0460 C   0  0  0  0  0  0  0  0  0  0  0  0
   38.3360   -1.1016   17.8938 C   0  0  0  0  0  0  0  0  0  0  0  0
   38.6822    0.1786   18.3336 C   0  0  0  0  0  0  0  0  0  0  0  0
   37.4086    2.8948   19.7977 H   0  0  0  0  0  0  0  0  0  0  0  0
   36.5446   -2.1604   15.1074 C   0  0  0  0  0  0  0  0  0  0  0  0
   37.4682   -2.7816   14.2477 C   0  0  0  0  0  0  0  0  0  0  0  0
   38.0588   -2.0622   13.2058 C   0  0  0  0  0  0  0  0  0  0  0  0
   37.7351   -0.7175   12.9964 C   0  0  0  0  0  0  0  0  0  0  0  0
   36.8024   -0.0955   13.8472 C   0  0  0  0  0  0  0  0  0  0  0  0
   36.2097   -0.8145   14.8891 C   0  0  0  0  0  0  0  0  0  0  0  0
   38.3560   -0.0408   11.9367 O   0  0  0  0  0  0  0  0  0  0  0  0
   39.2609    1.0495   12.0961 C   0  0  0  0  0  0  0  0  0  0  0  0
   40.6748    0.6068   11.7206 C   0  0  0  0  0  0  0  0  0  0  0  0
   41.4282    0.1677   12.9123 N   0  0  0  0  0  0  0  0  0  0  0  0
   40.7592    0.5804   14.1484 C   0  0  0  0  0  0  0  0  0  0  0  0
   41.2065   -0.3880   15.2306 C   0  0  0  0  0  0  0  0  0  0  0  0
   41.6801   -1.6279   14.4874 C   0  0  0  0  0  0  0  0  0  0  0  0
   40.9000   -2.7256   14.8133 F   0  0  0  0  0  0  0  0  0  0  0  0
   41.5454   -1.2923   13.0076 C   0  0  0  0  0  0  0  0  0  0  0  0
 13 14  1  0  0  0
 14 15  2  0  0  0
 15 16  1  0  0  0
 16 17  2  0  0  0
 17  1  1  0  0  0
  1  2  1  0  0  0
  2  3  1  0  0  0
  3  4  2  0  0  0
  4  5  1  0  0  0
  5  6  1  0  0  0
  5  7  2  0  0  0
  7  8  1  0  0  0
  8  9  2  0  0  0
  9 10  1  0  0  0
 10 11  1  0  0  0
 11 21  1  0  0  0
 21 22  2  0  0  0
 22 23  1  0  0  0
 23 24  2  0  0  0
 24 27  1  0  0  0
 27 28  1  0  0  0
 28 29  1  0  0  0
 29 30  1  0  0  0
 30 31  1  0  0  0
 31 32  1  0  0  0
 32 33  1  0  0  0
 33 34  1  0  0  0
 33 35  1  0  0  0
 24 25  1  0  0  0
 25 26  2  0  0  0
 17 18  1  0  0  0
 18 19  2  0  0  0
 19 14  1  0  0  0
 11  1  1  0  0  0
 26 21  1  0  0  0
  9  3  1  0  0  0
 35 30  1  0  0  0
 13 20  1  0  0  0
  6 12  1  0  0  0
M  END
> <minimizedAffinity>
-8.75208

$$$$
CMP_0


 35 39  0  0  0  0  0  0  0  0999 V2000
   37.5813   -2.9184   18.2575 C   0  0  0  0  0  0  0  0  0  0  0  0
   38.9725   -2.1973   17.3096 S   0  0  0  0  0  0  0  0  0  0  0  0
   38.4157   -0.4819   17.2162 C   0  0  0  0  0  0  0  0  0  0  0  0
   38.9904    0.3348   16.2328 C   0  0  0  0  0  0  0  0  0  0  0  0
   38.5920    1.6673   16.0908 C   0  0  0  0  0  0  0  0  0  0  0  0
   39.1840    2.4618   15.1115 O   0  0  0  0  0  0  0  0  0  0  0  0
   37.6024    2.1894   16.9311 C   0  0  0  0  0  0  0  0  0  0  0  0
   37.0116    1.3792   17.9028 C   0  0  0  0  0  0  0  0  0  0  0  0
   37.4086    0.0455   18.0533 C   0  0  0  0  0  0  0  0  0  0  0  0
   36.7443   -0.7371   19.0006 O   0  0  0  0  0  0  0  0  0  0  0  0
   37.2038   -2.0098   19.4422 C   0  0  0  0  0  0  0  0  0  0  0  0
   38.9168    3.4308   14.9828 H   0  0  0  0  0  0  0  0  0  0  0  0
   33.2772   -4.4808   14.8038 O   0  0  0  0  0  0  0  0  0  0  0  0
   34.3091   -4.1105   15.6631 C   0  0  0  0  0  0  0  0  0  0  0  0
   34.5907   -4.8644   16.8080 C   0  0  0  0  0  0  0  0  0  0  0  0
   35.6303   -4.4866   17.6629 C   0  0  0  0  0  0  0  0  0  0  0  0
   36.4023   -3.3399   17.3895 C   0  0  0  0  0  0  0  0  0  0  0  0
   36.1100   -2.5940   16.2308 C   0  0  0  0  0  0  0  0  0  0  0  0
   35.0716   -2.9762   15.3778 C   0  0  0  0  0  0  0  0  0  0  0  0
   32.7068   -5.2990   14.9831 H   0  0  0  0  0  0  0  0  0  0  0  0
   36.1691   -2.6598   20.3353 C   0  0  0  0  0  0  0  0  0  0  0  0
   36.5334   -3.6494   21.2658 C   0  0  0  0  0  0  0  0  0  0  0  0
   35.5780   -4.1981   22.1248 C   0  0  0  0  0  0  0  0  0  0  0  0
   34.2481   -3.7666   22.0788 C   0  0  0  0  0  0  0  0  0  0  0  0
   33.8820   -2.7680   21.1571 C   0  0  0  0  0  0  0  0  0  0  0  0
   34.8372   -2.2172   20.2981 C   0  0  0  0  0  0  0  0  0  0  0  0
   33.3284   -4.3493   22.9625 O   0  0  0  0  0  0  0  0  0  0  0  0
   32.4943   -3.6166   23.8571 C   0  0  0  0  0  0  0  0  0  0  0  0
   33.3172   -3.1299   25.0496 C   0  0  0  0  0  0  0  0  0  0  0  0
   32.4564   -2.8818   26.2234 N   0  0  0  0  0  0  0  0  0  0  0  0
   32.9923   -1.8057   27.0603 C   0  0  0  0  0  0  0  0  0  0  0  0
   31.8158   -1.2177   27.8211 C   0  0  0  0  0  0  0  0  0  0  0  0
   30.5851   -1.5994   27.0125 C   0  0  0  0  0  0  0  0  0  0  0  0
   29.9368   -0.4701   26.5392 F   0  0  0  0  0  0  0  0  0  0  0  0
   31.1033   -2.4464   25.8572 C   0  0  0  0  0  0  0  0  0  0  0  0
 13 14  1  0  0  0
 14 15  2  0  0  0
 15 16  1  0  0  0
 16 17  2  0  0  0
 17  1  1  0  0  0
  1  2  1  0  0  0
  2  3  1  0  0  0
  3  4  2  0  0  0
  4  5  1  0  0  0
  5  6  1  0  0  0
  5  7  2  0  0  0
  7  8  1  0  0  0
  8  9  2  0  0  0
  9 10  1  0  0  0
 10 11  1  0  0  0
 11 21  1  0  0  0
 21 22  2  0  0  0
 22 23  1  0  0  0
 23 24  2  0  0  0
 24 27  1  0  0  0
 27 28  1  0  0  0
 28 29  1  0  0  0
 29 30  1  0  0  0
 30 31  1  0  0  0
 31 32  1  0  0  0
 32 33  1  0  0  0
 33 34  1  0  0  0
 33 35  1  0  0  0
 24 25  1  0  0  0
 25 26  2  0  0  0
 17 18  1  0  0  0
 18 19  2  0  0  0
 19 14  1  0  0  0
 11  1  1  0  0  0
 26 21  1  0  0  0
  9  3  1  0  0  0
 35 30  1  0  0  0
 13 20  1  0  0  0
  6 12  1  0  0  0
M  END
> <minimizedAffinity>
-8.58297

$$$$
CMP_0


 35 39  0  0  0  0  0  0  0  0999 V2000
   38.0840    0.3240   16.9192 C   0  0  0  0  0  0  0  0  0  0  0  0
   38.5645    1.8807   16.0826 S   0  0  0  0  0  0  0  0  0  0  0  0
   36.9251    2.5400   15.7095 C   0  0  0  0  0  0  0  0  0  0  0  0
   36.8321    3.5270   14.7188 C   0  0  0  0  0  0  0  0  0  0  0  0
   35.5922    4.0674   14.3652 C   0  0  0  0  0  0  0  0  0  0  0  0
   35.5262    5.0536   13.3835 O   0  0  0  0  0  0  0  0  0  0  0  0
   34.4304    3.6119   14.9983 C   0  0  0  0  0  0  0  0  0  0  0  0
   34.5105    2.6169   15.9745 C   0  0  0  0  0  0  0  0  0  0  0  0
   35.7490    2.0745   16.3365 C   0  0  0  0  0  0  0  0  0  0  0  0
   35.7667    1.0407   17.2758 O   0  0  0  0  0  0  0  0  0  0  0  0
   36.9458    0.5779   17.9249 C   0  0  0  0  0  0  0  0  0  0  0  0
   34.6430    5.4646   13.1043 H   0  0  0  0  0  0  0  0  0  0  0  0
   37.2632   -4.1600   13.4385 O   0  0  0  0  0  0  0  0  0  0  0  0
   37.4417   -3.0591   14.2732 C   0  0  0  0  0  0  0  0  0  0  0  0
   36.3423   -2.3251   14.7327 C   0  0  0  0  0  0  0  0  0  0  0  0
   36.5313   -1.2237   15.5726 C   0  0  0  0  0  0  0  0  0  0  0  0
   37.8282   -0.8325   15.9609 C   0  0  0  0  0  0  0  0  0  0  0  0
   38.9244   -1.5840   15.4941 C   0  0  0  0  0  0  0  0  0  0  0  0
   38.7312   -2.6856   14.6567 C   0  0  0  0  0  0  0  0  0  0  0  0
   36.3402   -4.4564   13.1434 H   0  0  0  0  0  0  0  0  0  0  0  0
   36.6420   -0.6567   18.7459 C   0  0  0  0  0  0  0  0  0  0  0  0
   37.6760   -1.4766   19.2323 C   0  0  0  0  0  0  0  0  0  0  0  0
   37.3838   -2.5795   20.0385 C   0  0  0  0  0  0  0  0  0  0  0  0
   36.0613   -2.8803   20.3812 C   0  0  0  0  0  0  0  0  0  0  0  0
   35.0247   -2.0553   19.9063 C   0  0  0  0  0  0  0  0  0  0  0  0
   35.3157   -0.9507   19.1007 C   0  0  0  0  0  0  0  0  0  0  0  0
   35.8219   -3.9983   21.1930 O   0  0  0  0  0  0  0  0  0  0  0  0
   36.5323   -5.2309   21.0978 C   0  0  0  0  0  0  0  0  0  0  0  0
   35.6844   -6.2597   20.3502 C   0  0  0  0  0  0  0  0  0  0  0  0
   36.1550   -6.4271   18.9606 N   0  0  0  0  0  0  0  0  0  0  0  0
   35.4130   -5.5643   18.0383 C   0  0  0  0  0  0  0  0  0  0  0  0
   36.3162   -5.3287   16.8393 C   0  0  0  0  0  0  0  0  0  0  0  0
   37.7257   -5.6071   17.3390 C   0  0  0  0  0  0  0  0  0  0  0  0
   38.5093   -4.4670   17.2637 F   0  0  0  0  0  0  0  0  0  0  0  0
   37.5640   -6.0542   18.7863 C   0  0  0  0  0  0  0  0  0  0  0  0
 13 14  1  0  0  0
 14 15  2  0  0  0
 15 16  1  0  0  0
 16 17  2  0  0  0
 17  1  1  0  0  0
  1  2  1  0  0  0
  2  3  1  0  0  0
  3  4  2  0  0  0
  4  5  1  0  0  0
  5  6  1  0  0  0
  5  7  2  0  0  0
  7  8  1  0  0  0
  8  9  2  0  0  0
  9 10  1  0  0  0
 10 11  1  0  0  0
 11 21  1  0  0  0
 21 22  2  0  0  0
 22 23  1  0  0  0
 23 24  2  0  0  0
 24 27  1  0  0  0
 27 28  1  0  0  0
 28 29  1  0  0  0
 29 30  1  0  0  0
 30 31  1  0  0  0
 31 32  1  0  0  0
 32 33  1  0  0  0
 33 34  1  0  0  0
 33 35  1  0  0  0
 24 25  1  0  0  0
 25 26  2  0  0  0
 17 18  1  0  0  0
 18 19  2  0  0  0
 19 14  1  0  0  0
 11  1  1  0  0  0
 26 21  1  0  0  0
  9  3  1  0  0  0
 35 30  1  0  0  0
 13 20  1  0  0  0
  6 12  1  0  0  0
M  END
> <minimizedAffinity>
-8.55166

$$$$
CMP_0


 35 39  0  0  0  0  0  0  0  0999 V2000
   37.4685    0.8969   17.3181 C   0  0  0  0  0  0  0  0  0  0  0  0
   38.1954    2.5551   17.0430 S   0  0  0  0  0  0  0  0  0  0  0  0
   36.8878    3.2941   16.0402 C   0  0  0  0  0  0  0  0  0  0  0  0
   37.2141    4.4240   15.2777 C   0  0  0  0  0  0  0  0  0  0  0  0
   36.2562    5.0351   14.4633 C   0  0  0  0  0  0  0  0  0  0  0  0
   36.6021    6.1623   13.7213 O   0  0  0  0  0  0  0  0  0  0  0  0
   34.9613    4.5085   14.3993 C   0  0  0  0  0  0  0  0  0  0  0  0
   34.6310    3.3732   15.1419 C   0  0  0  0  0  0  0  0  0  0  0  0
   35.5838    2.7588   15.9627 C   0  0  0  0  0  0  0  0  0  0  0  0
   35.2179    1.5920   16.6381 O   0  0  0  0  0  0  0  0  0  0  0  0
   35.9792    1.0129   17.6921 C   0  0  0  0  0  0  0  0  0  0  0  0
   35.9311    6.6276   13.1211 H   0  0  0  0  0  0  0  0  0  0  0  0
   38.4577   -2.9930   13.2211 O   0  0  0  0  0  0  0  0  0  0  0  0
   38.2231   -2.0292   14.1990 C   0  0  0  0  0  0  0  0  0  0  0  0
   37.6897   -0.7809   13.8586 C   0  0  0  0  0  0  0  0  0  0  0  0
   37.4548    0.1789   14.8475 C   0  0  0  0  0  0  0  0  0  0  0  0
   37.7585   -0.0927   16.1964 C   0  0  0  0  0  0  0  0  0  0  0  0
   38.2903   -1.3552   16.5242 C   0  0  0  0  0  0  0  0  0  0  0  0
   38.5215   -2.3126   15.5332 C   0  0  0  0  0  0  0  0  0  0  0  0
   38.2508   -2.8177   12.2446 H   0  0  0  0  0  0  0  0  0  0  0  0
   35.3969   -0.3281   18.0838 C   0  0  0  0  0  0  0  0  0  0  0  0
   35.8030   -0.9784   19.2628 C   0  0  0  0  0  0  0  0  0  0  0  0
   35.2139   -2.1870   19.6423 C   0  0  0  0  0  0  0  0  0  0  0  0
   34.2069   -2.7641   18.8615 C   0  0  0  0  0  0  0  0  0  0  0  0
   33.7895   -2.1105   17.6871 C   0  0  0  0  0  0  0  0  0  0  0  0
   34.3770   -0.9004   17.3070 C   0  0  0  0  0  0  0  0  0  0  0  0
   33.6484   -3.9780   19.2867 O   0  0  0  0  0  0  0  0  0  0  0  0
   33.0971   -4.9616   18.4139 C   0  0  0  0  0  0  0  0  0  0  0  0
   34.2046   -5.8901   17.9162 C   0  0  0  0  0  0  0  0  0  0  0  0
   34.3946   -5.7563   16.4580 N   0  0  0  0  0  0  0  0  0  0  0  0
   33.1800   -5.2629   15.8046 C   0  0  0  0  0  0  0  0  0  0  0  0
   33.6211   -4.5873   14.5170 C   0  0  0  0  0  0  0  0  0  0  0  0
   35.0866   -4.2392   14.7293 C   0  0  0  0  0  0  0  0  0  0  0  0
   35.2785   -2.8677   14.6863 F   0  0  0  0  0  0  0  0  0  0  0  0
   35.4409   -4.7892   16.1050 C   0  0  0  0  0  0  0  0  0  0  0  0
 13 14  1  0  0  0
 14 15  2  0  0  0
 15 16  1  0  0  0
 16 17  2  0  0  0
 17  1  1  0  0  0
  1  2  1  0  0  0
  2  3  1  0  0  0
  3  4  2  0  0  0
  4  5  1  0  0  0
  5  6  1  0  0  0
  5  7  2  0  0  0
  7  8  1  0  0  0
  8  9  2  0  0  0
  9 10  1  0  0  0
 10 11  1  0  0  0
 11 21  1  0  0  0
 21 22  2  0  0  0
 22 23  1  0  0  0
 23 24  2  0  0  0
 24 27  1  0  0  0
 27 28  1  0  0  0
 28 29  1  0  0  0
 29 30  1  0  0  0
 30 31  1  0  0  0
 31 32  1  0  0  0
 32 33  1  0  0  0
 33 34  1  0  0  0
 33 35  1  0  0  0
 24 25  1  0  0  0
 25 26  2  0  0  0
 17 18  1  0  0  0
 18 19  2  0  0  0
 19 14  1  0  0  0
 11  1  1  0  0  0
 26 21  1  0  0  0
  9  3  1  0  0  0
 35 30  1  0  0  0
 13 20  1  0  0  0
  6 12  1  0  0  0
M  END
> <minimizedAffinity>
-8.42053

$$$$
CMP_0


 35 39  0  0  0  0  0  0  0  0999 V2000
   37.1040   -0.7923   14.6376 C   0  0  0  0  0  0  0  0  0  0  0  0
   38.1025   -0.0300   13.3050 S   0  0  0  0  0  0  0  0  0  0  0  0
   39.6667   -0.8925   13.5702 C   0  0  0  0  0  0  0  0  0  0  0  0
   40.8238   -0.3225   13.0218 C   0  0  0  0  0  0  0  0  0  0  0  0
   42.0714   -0.9261   13.2050 C   0  0  0  0  0  0  0  0  0  0  0  0
   43.2060   -0.3452   12.6429 O   0  0  0  0  0  0  0  0  0  0  0  0
   42.1691   -2.1054   13.9520 C   0  0  0  0  0  0  0  0  0  0  0  0
   41.0248   -2.6720   14.5167 C   0  0  0  0  0  0  0  0  0  0  0  0
   39.7720   -2.0754   14.3337 C   0  0  0  0  0  0  0  0  0  0  0  0
   38.6688   -2.6504   14.9691 O   0  0  0  0  0  0  0  0  0  0  0  0
   37.3177   -2.3171   14.6705 C   0  0  0  0  0  0  0  0  0  0  0  0
   44.1245   -0.7577   12.7582 H   0  0  0  0  0  0  0  0  0  0  0  0
   37.8592    1.9229   19.6328 O   0  0  0  0  0  0  0  0  0  0  0  0
   37.6535    1.2531   18.4288 C   0  0  0  0  0  0  0  0  0  0  0  0
   36.3585    1.0308   17.9471 C   0  0  0  0  0  0  0  0  0  0  0  0
   36.1623    0.3603   16.7362 C   0  0  0  0  0  0  0  0  0  0  0  0
   37.2619   -0.1074   15.9893 C   0  0  0  0  0  0  0  0  0  0  0  0
   38.5593    0.1282   16.4848 C   0  0  0  0  0  0  0  0  0  0  0  0
   38.7513    0.8008   17.6943 C   0  0  0  0  0  0  0  0  0  0  0  0
   37.0831    2.2641   20.1881 H   0  0  0  0  0  0  0  0  0  0  0  0
   36.3826   -2.9897   15.6523 C   0  0  0  0  0  0  0  0  0  0  0  0
   34.9928   -2.7844   15.5869 C   0  0  0  0  0  0  0  0  0  0  0  0
   34.1367   -3.4581   16.4616 C   0  0  0  0  0  0  0  0  0  0  0  0
   34.6468   -4.3522   17.4089 C   0  0  0  0  0  0  0  0  0  0  0  0
   36.0360   -4.5693   17.4696 C   0  0  0  0  0  0  0  0  0  0  0  0
   36.8935   -3.8970   16.5941 C   0  0  0  0  0  0  0  0  0  0  0  0
   33.7450   -5.0027   18.2633 O   0  0  0  0  0  0  0  0  0  0  0  0
   33.8464   -5.0138   19.6854 C   0  0  0  0  0  0  0  0  0  0  0  0
   33.4850   -3.6362   20.2402 C   0  0  0  0  0  0  0  0  0  0  0  0
   34.6744   -2.9569   20.7919 N   0  0  0  0  0  0  0  0  0  0  0  0
   35.7384   -3.9139   21.1047 C   0  0  0  0  0  0  0  0  0  0  0  0
   37.0470   -3.1433   21.0537 C   0  0  0  0  0  0  0  0  0  0  0  0
   36.7576   -1.9191   20.1985 C   0  0  0  0  0  0  0  0  0  0  0  0
   37.5322   -1.9262   19.0498 F   0  0  0  0  0  0  0  0  0  0  0  0
   35.2772   -2.0063   19.8498 C   0  0  0  0  0  0  0  0  0  0  0  0
 13 14  1  0  0  0
 14 15  2  0  0  0
 15 16  1  0  0  0
 16 17  2  0  0  0
 17  1  1  0  0  0
  1  2  1  0  0  0
  2  3  1  0  0  0
  3  4  2  0  0  0
  4  5  1  0  0  0
  5  6  1  0  0  0
  5  7  2  0  0  0
  7  8  1  0  0  0
  8  9  2  0  0  0
  9 10  1  0  0  0
 10 11  1  0  0  0
 11 21  1  0  0  0
 21 22  2  0  0  0
 22 23  1  0  0  0
 23 24  2  0  0  0
 24 27  1  0  0  0
 27 28  1  0  0  0
 28 29  1  0  0  0
 29 30  1  0  0  0
 30 31  1  0  0  0
 31 32  1  0  0  0
 32 33  1  0  0  0
 33 34  1  0  0  0
 33 35  1  0  0  0
 24 25  1  0  0  0
 25 26  2  0  0  0
 17 18  1  0  0  0
 18 19  2  0  0  0
 19 14  1  0  0  0
 11  1  1  0  0  0
 26 21  1  0  0  0
  9  3  1  0  0  0
 35 30  1  0  0  0
 13 20  1  0  0  0
  6 12  1  0  0  0
M  END
> <minimizedAffinity>
-8.37994

$$$$
CMP_0


 35 39  0  0  0  0  0  0  0  0999 V2000
   35.4261   -1.5903   16.6540 C   0  0  0  0  0  0  0  0  0  0  0  0
   34.2469   -2.9906   16.6012 S   0  0  0  0  0  0  0  0  0  0  0  0
   34.4007   -3.5775   18.3022 C   0  0  0  0  0  0  0  0  0  0  0  0
   33.9685   -4.8813   18.5809 C   0  0  0  0  0  0  0  0  0  0  0  0
   34.0764   -5.4074   19.8716 C   0  0  0  0  0  0  0  0  0  0  0  0
   33.6320   -6.7030   20.1259 O   0  0  0  0  0  0  0  0  0  0  0  0
   34.6309   -4.6296   20.8942 C   0  0  0  0  0  0  0  0  0  0  0  0
   35.0799   -3.3357   20.6231 C   0  0  0  0  0  0  0  0  0  0  0  0
   34.9711   -2.8011   19.3341 C   0  0  0  0  0  0  0  0  0  0  0  0
   35.4893   -1.5245   19.1040 O   0  0  0  0  0  0  0  0  0  0  0  0
   35.2233   -0.7587   17.9341 C   0  0  0  0  0  0  0  0  0  0  0  0
   33.6971   -7.1133   21.0502 H   0  0  0  0  0  0  0  0  0  0  0  0
   40.7944   -3.3366   15.6413 O   0  0  0  0  0  0  0  0  0  0  0  0
   39.4982   -2.8877   15.8835 C   0  0  0  0  0  0  0  0  0  0  0  0
   38.9984   -1.7585   15.2250 C   0  0  0  0  0  0  0  0  0  0  0  0
   37.6951   -1.3174   15.4723 C   0  0  0  0  0  0  0  0  0  0  0  0
   36.8710   -1.9962   16.3918 C   0  0  0  0  0  0  0  0  0  0  0  0
   37.3865   -3.1339   17.0433 C   0  0  0  0  0  0  0  0  0  0  0  0
   38.6888   -3.5730   16.7916 C   0  0  0  0  0  0  0  0  0  0  0  0
   41.4058   -2.8615   14.9875 H   0  0  0  0  0  0  0  0  0  0  0  0
   36.0711    0.4950   17.9242 C   0  0  0  0  0  0  0  0  0  0  0  0
   37.1289    0.6623   18.8359 C   0  0  0  0  0  0  0  0  0  0  0  0
   37.9405    1.7978   18.7766 C   0  0  0  0  0  0  0  0  0  0  0  0
   37.7196    2.7806   17.8059 C   0  0  0  0  0  0  0  0  0  0  0  0
   36.6695    2.6113   16.8842 C   0  0  0  0  0  0  0  0  0  0  0  0
   35.8577    1.4749   16.9416 C   0  0  0  0  0  0  0  0  0  0  0  0
   38.5626    3.9011   17.7893 O   0  0  0  0  0  0  0  0  0  0  0  0
   38.1795    5.1916   17.3195 C   0  0  0  0  0  0  0  0  0  0  0  0
   39.4164    5.9616   16.8575 C   0  0  0  0  0  0  0  0  0  0  0  0
   39.9459    6.8150   17.9400 N   0  0  0  0  0  0  0  0  0  0  0  0
   39.0351    6.8489   19.0868 C   0  0  0  0  0  0  0  0  0  0  0  0
   39.8796    7.1843   20.3047 C   0  0  0  0  0  0  0  0  0  0  0  0
   41.3022    6.8048   19.9222 C   0  0  0  0  0  0  0  0  0  0  0  0
   41.7811    5.7970   20.7436 F   0  0  0  0  0  0  0  0  0  0  0  0
   41.2225    6.3291   18.4772 C   0  0  0  0  0  0  0  0  0  0  0  0
 13 14  1  0  0  0
 14 15  2  0  0  0
 15 16  1  0  0  0
 16 17  2  0  0  0
 17  1  1  0  0  0
  1  2  1  0  0  0
  2  3  1  0  0  0
  3  4  2  0  0  0
  4  5  1  0  0  0
  5  6  1  0  0  0
  5  7  2  0  0  0
  7  8  1  0  0  0
  8  9  2  0  0  0
  9 10  1  0  0  0
 10 11  1  0  0  0
 11 21  1  0  0  0
 21 22  2  0  0  0
 22 23  1  0  0  0
 23 24  2  0  0  0
 24 27  1  0  0  0
 27 28  1  0  0  0
 28 29  1  0  0  0
 29 30  1  0  0  0
 30 31  1  0  0  0
 31 32  1  0  0  0
 32 33  1  0  0  0
 33 34  1  0  0  0
 33 35  1  0  0  0
 24 25  1  0  0  0
 25 26  2  0  0  0
 17 18  1  0  0  0
 18 19  2  0  0  0
 19 14  1  0  0  0
 11  1  1  0  0  0
 26 21  1  0  0  0
  9  3  1  0  0  0
 35 30  1  0  0  0
 13 20  1  0  0  0
  6 12  1  0  0  0
M  END
> <minimizedAffinity>
-8.37161

$$$$
CMP_0


 35 39  0  0  0  0  0  0  0  0999 V2000
   35.9889   -3.2463   17.9087 C   0  0  0  0  0  0  0  0  0  0  0  0
   36.9427   -2.6175   16.4777 S   0  0  0  0  0  0  0  0  0  0  0  0
   36.2144   -0.9724   16.3344 C   0  0  0  0  0  0  0  0  0  0  0  0
   36.3554   -0.3052   15.1106 C   0  0  0  0  0  0  0  0  0  0  0  0
   35.7917    0.9628   14.9216 C   0  0  0  0  0  0  0  0  0  0  0  0
   35.9361    1.6305   13.7079 O   0  0  0  0  0  0  0  0  0  0  0  0
   35.0749    1.5637   15.9584 C   0  0  0  0  0  0  0  0  0  0  0  0
   34.9142    0.8995   17.1760 C   0  0  0  0  0  0  0  0  0  0  0  0
   35.4755   -0.3668   17.3739 C   0  0  0  0  0  0  0  0  0  0  0  0
   35.2283   -1.0149   18.5866 O   0  0  0  0  0  0  0  0  0  0  0  0
   35.9179   -2.1827   19.0208 C   0  0  0  0  0  0  0  0  0  0  0  0
   36.4521    1.2224   12.9373 H   0  0  0  0  0  0  0  0  0  0  0  0
   30.8767   -5.5760   16.7518 O   0  0  0  0  0  0  0  0  0  0  0  0
   32.1249   -5.0144   17.0115 C   0  0  0  0  0  0  0  0  0  0  0  0
   33.1392   -5.7723   17.6071 C   0  0  0  0  0  0  0  0  0  0  0  0
   34.3849   -5.1959   17.8673 C   0  0  0  0  0  0  0  0  0  0  0  0
   34.6409   -3.8509   17.5349 C   0  0  0  0  0  0  0  0  0  0  0  0
   33.6094   -3.0989   16.9383 C   0  0  0  0  0  0  0  0  0  0  0  0
   32.3650   -3.6802   16.6766 C   0  0  0  0  0  0  0  0  0  0  0  0
   30.6699   -6.5385   16.9900 H   0  0  0  0  0  0  0  0  0  0  0  0
   35.2763   -2.7362   20.2753 C   0  0  0  0  0  0  0  0  0  0  0  0
   33.9461   -2.4075   20.5812 C   0  0  0  0  0  0  0  0  0  0  0  0
   33.3638   -2.8426   21.7750 C   0  0  0  0  0  0  0  0  0  0  0  0
   34.1096   -3.6075   22.6912 C   0  0  0  0  0  0  0  0  0  0  0  0
   35.4361   -3.9316   22.3884 C   0  0  0  0  0  0  0  0  0  0  0  0
   36.0194   -3.4978   21.1952 C   0  0  0  0  0  0  0  0  0  0  0  0
   33.5757   -4.0555   23.9082 O   0  0  0  0  0  0  0  0  0  0  0  0
   32.5285   -3.3975   24.6188 C   0  0  0  0  0  0  0  0  0  0  0  0
   32.9525   -3.1627   26.0689 C   0  0  0  0  0  0  0  0  0  0  0  0
   33.3438   -1.7557   26.2911 N   0  0  0  0  0  0  0  0  0  0  0  0
   33.0199   -1.3146   27.6546 C   0  0  0  0  0  0  0  0  0  0  0  0
   32.6512    0.1651   27.5866 C   0  0  0  0  0  0  0  0  0  0  0  0
   32.6290    0.5144   26.1085 C   0  0  0  0  0  0  0  0  0  0  0  0
   33.7641    1.2369   25.7745 F   0  0  0  0  0  0  0  0  0  0  0  0
   32.6445   -0.8250   25.3990 C   0  0  0  0  0  0  0  0  0  0  0  0
 13 14  1  0  0  0
 14 15  2  0  0  0
 15 16  1  0  0  0
 16 17  2  0  0  0
 17  1  1  0  0  0
  1  2  1  0  0  0
  2  3  1  0  0  0
  3  4  2  0  0  0
  4  5  1  0  0  0
  5  6  1  0  0  0
  5  7  2  0  0  0
  7  8  1  0  0  0
  8  9  2  0  0  0
  9 10  1  0  0  0
 10 11  1  0  0  0
 11 21  1  0  0  0
 21 22  2  0  0  0
 22 23  1  0  0  0
 23 24  2  0  0  0
 24 27  1  0  0  0
 27 28  1  0  0  0
 28 29  1  0  0  0
 29 30  1  0  0  0
 30 31  1  0  0  0
 31 32  1  0  0  0
 32 33  1  0  0  0
 33 34  1  0  0  0
 33 35  1  0  0  0
 24 25  1  0  0  0
 25 26  2  0  0  0
 17 18  1  0  0  0
 18 19  2  0  0  0
 19 14  1  0  0  0
 11  1  1  0  0  0
 26 21  1  0  0  0
  9  3  1  0  0  0
 35 30  1  0  0  0
 13 20  1  0  0  0
  6 12  1  0  0  0
M  END
> <minimizedAffinity>
-9.20273

$$$$
CMP_0


 35 39  0  0  0  0  0  0  0  0999 V2000
   37.7632   -0.9658   17.1497 C   0  0  0  0  0  0  0  0  0  0  0  0
   38.5301    0.2858   16.0550 S   0  0  0  0  0  0  0  0  0  0  0  0
   37.0903    1.3273   15.7394 C   0  0  0  0  0  0  0  0  0  0  0  0
   37.1283    2.1630   14.6156 C   0  0  0  0  0  0  0  0  0  0  0  0
   36.0347    2.9774   14.2964 C   0  0  0  0  0  0  0  0  0  0  0  0
   36.0729    3.8136   13.1832 O   0  0  0  0  0  0  0  0  0  0  0  0
   34.8927    2.9498   15.0995 C   0  0  0  0  0  0  0  0  0  0  0  0
   34.8385    2.1075   16.2117 C   0  0  0  0  0  0  0  0  0  0  0  0
   35.9272    1.2918   16.5389 C   0  0  0  0  0  0  0  0  0  0  0  0
   35.7952    0.4200   17.6225 O   0  0  0  0  0  0  0  0  0  0  0  0
   36.8813   -0.2858   18.2141 C   0  0  0  0  0  0  0  0  0  0  0  0
   36.8875    3.8581   12.5823 H   0  0  0  0  0  0  0  0  0  0  0  0
   35.1571   -5.3710   14.5607 O   0  0  0  0  0  0  0  0  0  0  0  0
   35.7997   -4.2954   15.1698 C   0  0  0  0  0  0  0  0  0  0  0  0
   37.0068   -4.4786   15.8533 C   0  0  0  0  0  0  0  0  0  0  0  0
   37.6387   -3.3929   16.4646 C   0  0  0  0  0  0  0  0  0  0  0  0
   37.0765   -2.1025   16.4022 C   0  0  0  0  0  0  0  0  0  0  0  0
   35.8591   -1.9333   15.7130 C   0  0  0  0  0  0  0  0  0  0  0  0
   35.2314   -3.0218   15.0999 C   0  0  0  0  0  0  0  0  0  0  0  0
   35.5405   -6.3077   14.6004 H   0  0  0  0  0  0  0  0  0  0  0  0
   36.3684   -1.2857   19.2284 C   0  0  0  0  0  0  0  0  0  0  0  0
   37.2771   -2.0833   19.9419 C   0  0  0  0  0  0  0  0  0  0  0  0
   36.8190   -3.0676   20.8221 C   0  0  0  0  0  0  0  0  0  0  0  0
   35.4383   -3.2782   20.9952 C   0  0  0  0  0  0  0  0  0  0  0  0
   34.5329   -2.4863   20.2815 C   0  0  0  0  0  0  0  0  0  0  0  0
   34.9894   -1.5017   19.4016 C   0  0  0  0  0  0  0  0  0  0  0  0
   34.9289   -4.2620   21.8551 O   0  0  0  0  0  0  0  0  0  0  0  0
   33.6284   -4.2253   22.4398 C   0  0  0  0  0  0  0  0  0  0  0  0
   33.7039   -3.6069   23.8361 C   0  0  0  0  0  0  0  0  0  0  0  0
   32.3671   -3.1984   24.3138 N   0  0  0  0  0  0  0  0  0  0  0  0
   31.9381   -1.9341   23.7006 C   0  0  0  0  0  0  0  0  0  0  0  0
   31.0971   -1.1830   24.7295 C   0  0  0  0  0  0  0  0  0  0  0  0
   31.1895   -1.9981   26.0079 C   0  0  0  0  0  0  0  0  0  0  0  0
   30.0106   -2.6989   26.2102 F   0  0  0  0  0  0  0  0  0  0  0  0
   32.3284   -2.9676   25.7617 C   0  0  0  0  0  0  0  0  0  0  0  0
 13 14  1  0  0  0
 14 15  2  0  0  0
 15 16  1  0  0  0
 16 17  2  0  0  0
 17  1  1  0  0  0
  1  2  1  0  0  0
  2  3  1  0  0  0
  3  4  2  0  0  0
  4  5  1  0  0  0
  5  6  1  0  0  0
  5  7  2  0  0  0
  7  8  1  0  0  0
  8  9  2  0  0  0
  9 10  1  0  0  0
 10 11  1  0  0  0
 11 21  1  0  0  0
 21 22  2  0  0  0
 22 23  1  0  0  0
 23 24  2  0  0  0
 24 27  1  0  0  0
 27 28  1  0  0  0
 28 29  1  0  0  0
 29 30  1  0  0  0
 30 31  1  0  0  0
 31 32  1  0  0  0
 32 33  1  0  0  0
 33 34  1  0  0  0
 33 35  1  0  0  0
 24 25  1  0  0  0
 25 26  2  0  0  0
 17 18  1  0  0  0
 18 19  2  0  0  0
 19 14  1  0  0  0
 11  1  1  0  0  0
 26 21  1  0  0  0
  9  3  1  0  0  0
 35 30  1  0  0  0
 13 20  1  0  0  0
  6 12  1  0  0  0
M  END
> <minimizedAffinity>
-9.17643

$$$$
CMP_0


 35 39  0  0  0  0  0  0  0  0999 V2000
   36.9367   -2.4772   17.6389 C   0  0  0  0  0  0  0  0  0  0  0  0
   37.8861   -1.6381   16.3170 S   0  0  0  0  0  0  0  0  0  0  0  0
   36.7941   -0.2338   16.0121 C   0  0  0  0  0  0  0  0  0  0  0  0
   36.9269    0.4373   14.7895 C   0  0  0  0  0  0  0  0  0  0  0  0
   36.0936    1.5185   14.4765 C   0  0  0  0  0  0  0  0  0  0  0  0
   36.2281    2.1910   13.2642 O   0  0  0  0  0  0  0  0  0  0  0  0
   35.1158    1.9256   15.3864 C   0  0  0  0  0  0  0  0  0  0  0  0
   34.9642    1.2523   16.6001 C   0  0  0  0  0  0  0  0  0  0  0  0
   35.7936    0.1722   16.9217 C   0  0  0  0  0  0  0  0  0  0  0  0
   35.5558   -0.5075   18.1188 O   0  0  0  0  0  0  0  0  0  0  0  0
   36.4514   -1.4577   18.6869 C   0  0  0  0  0  0  0  0  0  0  0  0
   36.9292    1.9214   12.5842 H   0  0  0  0  0  0  0  0  0  0  0  0
   32.7735   -6.0358   15.9345 O   0  0  0  0  0  0  0  0  0  0  0  0
   33.7952   -5.1745   16.3286 C   0  0  0  0  0  0  0  0  0  0  0  0
   34.8611   -5.6397   17.1065 C   0  0  0  0  0  0  0  0  0  0  0  0
   35.8768   -4.7648   17.4999 C   0  0  0  0  0  0  0  0  0  0  0  0
   35.8470   -3.4081   17.1209 C   0  0  0  0  0  0  0  0  0  0  0  0
   34.7660   -2.9529   16.3400 C   0  0  0  0  0  0  0  0  0  0  0  0
   33.7531   -3.8323   15.9457 C   0  0  0  0  0  0  0  0  0  0  0  0
   32.7721   -7.0124   16.2026 H   0  0  0  0  0  0  0  0  0  0  0  0
   35.8063   -2.1460   19.8708 C   0  0  0  0  0  0  0  0  0  0  0  0
   36.5815   -2.9615   20.7105 C   0  0  0  0  0  0  0  0  0  0  0  0
   35.9873   -3.6689   21.7592 C   0  0  0  0  0  0  0  0  0  0  0  0
   34.6000   -3.5803   21.9790 C   0  0  0  0  0  0  0  0  0  0  0  0
   33.8269   -2.7711   21.1401 C   0  0  0  0  0  0  0  0  0  0  0  0
   34.4197   -2.0630   20.0916 C   0  0  0  0  0  0  0  0  0  0  0  0
   33.9547   -4.2812   23.0082 O   0  0  0  0  0  0  0  0  0  0  0  0
   32.7532   -3.8507   23.6450 C   0  0  0  0  0  0  0  0  0  0  0  0
   33.0893   -2.9473   24.8318 C   0  0  0  0  0  0  0  0  0  0  0  0
   31.8821   -2.6299   25.6218 N   0  0  0  0  0  0  0  0  0  0  0  0
   31.0625   -1.6023   24.9654 C   0  0  0  0  0  0  0  0  0  0  0  0
   30.4065   -0.7649   26.0602 C   0  0  0  0  0  0  0  0  0  0  0  0
   31.0041   -1.2580   27.3667 C   0  0  0  0  0  0  0  0  0  0  0  0
   30.0869   -2.0512   28.0387 F   0  0  0  0  0  0  0  0  0  0  0  0
   32.1982   -2.0933   26.9497 C   0  0  0  0  0  0  0  0  0  0  0  0
 13 14  1  0  0  0
 14 15  2  0  0  0
 15 16  1  0  0  0
 16 17  2  0  0  0
 17  1  1  0  0  0
  1  2  1  0  0  0
  2  3  1  0  0  0
  3  4  2  0  0  0
  4  5  1  0  0  0
  5  6  1  0  0  0
  5  7  2  0  0  0
  7  8  1  0  0  0
  8  9  2  0  0  0
  9 10  1  0  0  0
 10 11  1  0  0  0
 11 21  1  0  0  0
 21 22  2  0  0  0
 22 23  1  0  0  0
 23 24  2  0  0  0
 24 27  1  0  0  0
 27 28  1  0  0  0
 28 29  1  0  0  0
 29 30  1  0  0  0
 30 31  1  0  0  0
 31 32  1  0  0  0
 32 33  1  0  0  0
 33 34  1  0  0  0
 33 35  1  0  0  0
 24 25  1  0  0  0
 25 26  2  0  0  0
 17 18  1  0  0  0
 18 19  2  0  0  0
 19 14  1  0  0  0
 11  1  1  0  0  0
 26 21  1  0  0  0
  9  3  1  0  0  0
 35 30  1  0  0  0
 13 20  1  0  0  0
  6 12  1  0  0  0
M  END
> <minimizedAffinity>
-8.90886

$$$$
CMP_0


 35 39  0  0  0  0  0  0  0  0999 V2000
   36.6282   -3.0119   17.5469 C   0  0  0  0  0  0  0  0  0  0  0  0
   35.8050   -4.1320   18.7388 S   0  0  0  0  0  0  0  0  0  0  0  0
   34.0974   -3.5867   18.5291 C   0  0  0  0  0  0  0  0  0  0  0  0
   33.1900   -3.8885   19.5529 C   0  0  0  0  0  0  0  0  0  0  0  0
   31.8557   -3.4719   19.4676 C   0  0  0  0  0  0  0  0  0  0  0  0
   30.9505   -3.7764   20.4814 O   0  0  0  0  0  0  0  0  0  0  0  0
   31.4277   -2.7414   18.3572 C   0  0  0  0  0  0  0  0  0  0  0  0
   32.3285   -2.4208   17.3398 C   0  0  0  0  0  0  0  0  0  0  0  0
   33.6630   -2.8345   17.4161 C   0  0  0  0  0  0  0  0  0  0  0  0
   34.5371   -2.4301   16.4041 O   0  0  0  0  0  0  0  0  0  0  0  0
   35.8450   -2.9627   16.2212 C   0  0  0  0  0  0  0  0  0  0  0  0
   31.2294   -4.3066   21.2985 H   0  0  0  0  0  0  0  0  0  0  0  0
   37.9896    2.2167   19.4726 O   0  0  0  0  0  0  0  0  0  0  0  0
   37.6621    0.9385   19.0257 C   0  0  0  0  0  0  0  0  0  0  0  0
   38.6258    0.1251   18.4195 C   0  0  0  0  0  0  0  0  0  0  0  0
   38.2835   -1.1528   17.9707 C   0  0  0  0  0  0  0  0  0  0  0  0
   36.9711   -1.6427   18.1215 C   0  0  0  0  0  0  0  0  0  0  0  0
   36.0103   -0.8116   18.7312 C   0  0  0  0  0  0  0  0  0  0  0  0
   36.3575    0.4655   19.1818 C   0  0  0  0  0  0  0  0  0  0  0  0
   38.9249    2.5906   19.3668 H   0  0  0  0  0  0  0  0  0  0  0  0
   36.5914   -2.1735   15.1668 C   0  0  0  0  0  0  0  0  0  0  0  0
   37.7733   -2.6922   14.6145 C   0  0  0  0  0  0  0  0  0  0  0  0
   38.5186   -1.9423   13.7003 C   0  0  0  0  0  0  0  0  0  0  0  0
   38.0976   -0.6512   13.3309 C   0  0  0  0  0  0  0  0  0  0  0  0
   36.9223   -0.1327   13.8841 C   0  0  0  0  0  0  0  0  0  0  0  0
   36.1760   -0.8815   14.7976 C   0  0  0  0  0  0  0  0  0  0  0  0
   38.8176    0.1461   12.4293 O   0  0  0  0  0  0  0  0  0  0  0  0
   38.6477    1.5551   12.2872 C   0  0  0  0  0  0  0  0  0  0  0  0
   39.6043    2.2909   13.2260 C   0  0  0  0  0  0  0  0  0  0  0  0
   38.8706    3.1843   14.1455 N   0  0  0  0  0  0  0  0  0  0  0  0
   38.6837    2.5651   15.4646 C   0  0  0  0  0  0  0  0  0  0  0  0
   37.3457    3.0493   16.0174 C   0  0  0  0  0  0  0  0  0  0  0  0
   36.7045    3.8490   14.8964 C   0  0  0  0  0  0  0  0  0  0  0  0
   36.8031    5.2055   15.1648 F   0  0  0  0  0  0  0  0  0  0  0  0
   37.5223    3.5072   13.6668 C   0  0  0  0  0  0  0  0  0  0  0  0
 13 14  1  0  0  0
 14 15  2  0  0  0
 15 16  1  0  0  0
 16 17  2  0  0  0
 17  1  1  0  0  0
  1  2  1  0  0  0
  2  3  1  0  0  0
  3  4  2  0  0  0
  4  5  1  0  0  0
  5  6  1  0  0  0
  5  7  2  0  0  0
  7  8  1  0  0  0
  8  9  2  0  0  0
  9 10  1  0  0  0
 10 11  1  0  0  0
 11 21  1  0  0  0
 21 22  2  0  0  0
 22 23  1  0  0  0
 23 24  2  0  0  0
 24 27  1  0  0  0
 27 28  1  0  0  0
 28 29  1  0  0  0
 29 30  1  0  0  0
 30 31  1  0  0  0
 31 32  1  0  0  0
 32 33  1  0  0  0
 33 34  1  0  0  0
 33 35  1  0  0  0
 24 25  1  0  0  0
 25 26  2  0  0  0
 17 18  1  0  0  0
 18 19  2  0  0  0
 19 14  1  0  0  0
 11  1  1  0  0  0
 26 21  1  0  0  0
  9  3  1  0  0  0
 35 30  1  0  0  0
 13 20  1  0  0  0
  6 12  1  0  0  0
M  END
> <minimizedAffinity>
-8.63173

$$$$
CMP_0


 35 39  0  0  0  0  0  0  0  0999 V2000
   33.3831   -2.8541   18.4040 C   0  0  0  0  0  0  0  0  0  0  0  0
   32.8753   -3.0581   16.6566 S   0  0  0  0  0  0  0  0  0  0  0  0
   33.4326   -4.7524   16.3807 C   0  0  0  0  0  0  0  0  0  0  0  0
   33.6198   -5.1657   15.0553 C   0  0  0  0  0  0  0  0  0  0  0  0
   34.0766   -6.4584   14.7701 C   0  0  0  0  0  0  0  0  0  0  0  0
   34.2575   -6.8733   13.4529 O   0  0  0  0  0  0  0  0  0  0  0  0
   34.3569   -7.3404   15.8158 C   0  0  0  0  0  0  0  0  0  0  0  0
   34.1899   -6.9323   17.1405 C   0  0  0  0  0  0  0  0  0  0  0  0
   33.7323   -5.6431   17.4344 C   0  0  0  0  0  0  0  0  0  0  0  0
   33.6465   -5.2642   18.7763 O   0  0  0  0  0  0  0  0  0  0  0  0
   32.9822   -4.0899   19.2317 C   0  0  0  0  0  0  0  0  0  0  0  0
   34.0609   -6.2579   12.6723 H   0  0  0  0  0  0  0  0  0  0  0  0
   38.8689   -1.2279   18.8072 O   0  0  0  0  0  0  0  0  0  0  0  0
   37.5384   -1.6336   18.7292 C   0  0  0  0  0  0  0  0  0  0  0  0
   37.1816   -2.7771   18.0061 C   0  0  0  0  0  0  0  0  0  0  0  0
   35.8431   -3.1704   17.9309 C   0  0  0  0  0  0  0  0  0  0  0  0
   34.8359   -2.4287   18.5794 C   0  0  0  0  0  0  0  0  0  0  0  0
   35.2094   -1.2778   19.3015 C   0  0  0  0  0  0  0  0  0  0  0  0
   36.5503   -0.8892   19.3769 C   0  0  0  0  0  0  0  0  0  0  0  0
   39.6069   -1.7425   18.3421 H   0  0  0  0  0  0  0  0  0  0  0  0
   33.2444   -3.8762   20.7073 C   0  0  0  0  0  0  0  0  0  0  0  0
   34.4179   -4.3836   21.2873 C   0  0  0  0  0  0  0  0  0  0  0  0
   34.6379   -4.2668   22.6627 C   0  0  0  0  0  0  0  0  0  0  0  0
   33.6783   -3.6477   23.4851 C   0  0  0  0  0  0  0  0  0  0  0  0
   32.5073   -3.1457   22.9079 C   0  0  0  0  0  0  0  0  0  0  0  0
   32.2862   -3.2613   21.5332 C   0  0  0  0  0  0  0  0  0  0  0  0
   33.8457   -3.5188   24.8715 O   0  0  0  0  0  0  0  0  0  0  0  0
   32.7802   -3.3005   25.7943 C   0  0  0  0  0  0  0  0  0  0  0  0
   32.8055   -1.8522   26.2838 C   0  0  0  0  0  0  0  0  0  0  0  0
   31.4383   -1.3361   26.4996 N   0  0  0  0  0  0  0  0  0  0  0  0
   31.1609   -1.1237   27.9267 C   0  0  0  0  0  0  0  0  0  0  0  0
   29.6807   -1.4163   28.1585 C   0  0  0  0  0  0  0  0  0  0  0  0
   29.1571   -1.9521   26.8372 C   0  0  0  0  0  0  0  0  0  0  0  0
   28.4089   -0.9786   26.1933 F   0  0  0  0  0  0  0  0  0  0  0  0
   30.4021   -2.2616   26.0298 C   0  0  0  0  0  0  0  0  0  0  0  0
 13 14  1  0  0  0
 14 15  2  0  0  0
 15 16  1  0  0  0
 16 17  2  0  0  0
 17  1  1  0  0  0
  1  2  1  0  0  0
  2  3  1  0  0  0
  3  4  2  0  0  0
  4  5  1  0  0  0
  5  6  1  0  0  0
  5  7  2  0  0  0
  7  8  1  0  0  0
  8  9  2  0  0  0
  9 10  1  0  0  0
 10 11  1  0  0  0
 11 21  1  0  0  0
 21 22  2  0  0  0
 22 23  1  0  0  0
 23 24  2  0  0  0
 24 27  1  0  0  0
 27 28  1  0  0  0
 28 29  1  0  0  0
 29 30  1  0  0  0
 30 31  1  0  0  0
 31 32  1  0  0  0
 32 33  1  0  0  0
 33 34  1  0  0  0
 33 35  1  0  0  0
 24 25  1  0  0  0
 25 26  2  0  0  0
 17 18  1  0  0  0
 18 19  2  0  0  0
 19 14  1  0  0  0
 11  1  1  0  0  0
 26 21  1  0  0  0
  9  3  1  0  0  0
 35 30  1  0  0  0
 13 20  1  0  0  0
  6 12  1  0  0  0
M  END
> <minimizedAffinity>
-8.61661

$$$$
CMP_0


 35 39  0  0  0  0  0  0  0  0999 V2000
   36.6350   -2.9598   17.4632 C   0  0  0  0  0  0  0  0  0  0  0  0
   35.8536   -4.1058   18.6588 S   0  0  0  0  0  0  0  0  0  0  0  0
   34.1371   -3.5694   18.5068 C   0  0  0  0  0  0  0  0  0  0  0  0
   33.2612   -3.8949   19.5505 C   0  0  0  0  0  0  0  0  0  0  0  0
   31.9222   -3.4867   19.5101 C   0  0  0  0  0  0  0  0  0  0  0  0
   31.0482   -3.8146   20.5438 O   0  0  0  0  0  0  0  0  0  0  0  0
   31.4579   -2.7408   18.4248 C   0  0  0  0  0  0  0  0  0  0  0  0
   32.3273   -2.3966   17.3879 C   0  0  0  0  0  0  0  0  0  0  0  0
   33.6662   -2.8018   17.4194 C   0  0  0  0  0  0  0  0  0  0  0  0
   34.5084   -2.3742   16.3901 O   0  0  0  0  0  0  0  0  0  0  0  0
   35.8141   -2.8942   16.1613 C   0  0  0  0  0  0  0  0  0  0  0  0
   31.3538   -4.3564   21.3436 H   0  0  0  0  0  0  0  0  0  0  0  0
   38.0297    2.2405   19.4409 O   0  0  0  0  0  0  0  0  0  0  0  0
   37.6934    0.9690   18.9815 C   0  0  0  0  0  0  0  0  0  0  0  0
   38.6594    0.1418   18.3981 C   0  0  0  0  0  0  0  0  0  0  0  0
   38.3084   -1.1292   17.9364 C   0  0  0  0  0  0  0  0  0  0  0  0
   36.9848   -1.5981   18.0511 C   0  0  0  0  0  0  0  0  0  0  0  0
   36.0218   -0.7531   18.6380 C   0  0  0  0  0  0  0  0  0  0  0  0
   36.3777    0.5169   19.1017 C   0  0  0  0  0  0  0  0  0  0  0  0
   38.9734    2.5994   19.3609 H   0  0  0  0  0  0  0  0  0  0  0  0
   36.5250   -2.0820   15.0997 C   0  0  0  0  0  0  0  0  0  0  0  0
   36.1837   -0.7336   14.9088 C   0  0  0  0  0  0  0  0  0  0  0  0
   36.7711    0.0086   13.8804 C   0  0  0  0  0  0  0  0  0  0  0  0
   37.7051   -0.5918   13.0157 C   0  0  0  0  0  0  0  0  0  0  0  0
   38.0421   -1.9362   13.2033 C   0  0  0  0  0  0  0  0  0  0  0  0
   37.4562   -2.6793   14.2311 C   0  0  0  0  0  0  0  0  0  0  0  0
   38.3112    0.1059   11.9608 O   0  0  0  0  0  0  0  0  0  0  0  0
   39.5455   -0.2685   11.3520 C   0  0  0  0  0  0  0  0  0  0  0  0
   40.7046    0.4498   12.0435 C   0  0  0  0  0  0  0  0  0  0  0  0
   41.6312   -0.5127   12.6738 N   0  0  0  0  0  0  0  0  0  0  0  0
   41.5110   -1.8488   12.0746 C   0  0  0  0  0  0  0  0  0  0  0  0
   41.7725   -2.8742   13.1747 C   0  0  0  0  0  0  0  0  0  0  0  0
   41.8961   -2.0739   14.4599 C   0  0  0  0  0  0  0  0  0  0  0  0
   43.2271   -1.9856   14.8378 F   0  0  0  0  0  0  0  0  0  0  0  0
   41.3698   -0.6974   14.1051 C   0  0  0  0  0  0  0  0  0  0  0  0
 13 14  1  0  0  0
 14 15  2  0  0  0
 15 16  1  0  0  0
 16 17  2  0  0  0
 17  1  1  0  0  0
  1  2  1  0  0  0
  2  3  1  0  0  0
  3  4  2  0  0  0
  4  5  1  0  0  0
  5  6  1  0  0  0
  5  7  2  0  0  0
  7  8  1  0  0  0
  8  9  2  0  0  0
  9 10  1  0  0  0
 10 11  1  0  0  0
 11 21  1  0  0  0
 21 22  2  0  0  0
 22 23  1  0  0  0
 23 24  2  0  0  0
 24 27  1  0  0  0
 27 28  1  0  0  0
 28 29  1  0  0  0
 29 30  1  0  0  0
 30 31  1  0  0  0
 31 32  1  0  0  0
 32 33  1  0  0  0
 33 34  1  0  0  0
 33 35  1  0  0  0
 24 25  1  0  0  0
 25 26  2  0  0  0
 17 18  1  0  0  0
 18 19  2  0  0  0
 19 14  1  0  0  0
 11  1  1  0  0  0
 26 21  1  0  0  0
  9  3  1  0  0  0
 35 30  1  0  0  0
 13 20  1  0  0  0
  6 12  1  0  0  0
M  END
> <minimizedAffinity>
-8.58592

$$$$
CMP_0


 35 39  0  0  0  0  0  0  0  0999 V2000
   35.4729   -1.8073   16.5873 C   0  0  0  0  0  0  0  0  0  0  0  0
   34.3280   -3.2249   16.4063 S   0  0  0  0  0  0  0  0  0  0  0  0
   34.4529   -3.9220   18.0664 C   0  0  0  0  0  0  0  0  0  0  0  0
   34.0646   -5.2568   18.2400 C   0  0  0  0  0  0  0  0  0  0  0  0
   34.1610   -5.8690   19.4959 C   0  0  0  0  0  0  0  0  0  0  0  0
   33.7697   -7.1940   19.6720 O   0  0  0  0  0  0  0  0  0  0  0  0
   34.6572   -5.1460   20.5826 C   0  0  0  0  0  0  0  0  0  0  0  0
   35.0628   -3.8205   20.4159 C   0  0  0  0  0  0  0  0  0  0  0  0
   34.9682   -3.2005   19.1651 C   0  0  0  0  0  0  0  0  0  0  0  0
   35.4497   -1.8952   19.0386 O   0  0  0  0  0  0  0  0  0  0  0  0
   35.2068   -1.0625   17.9093 C   0  0  0  0  0  0  0  0  0  0  0  0
   33.4037   -7.7444   18.9041 H   0  0  0  0  0  0  0  0  0  0  0  0
   40.9041   -3.3566   15.5861 O   0  0  0  0  0  0  0  0  0  0  0  0
   39.5919   -2.9677   15.8468 C   0  0  0  0  0  0  0  0  0  0  0  0
   38.7437   -3.7806   16.6069 C   0  0  0  0  0  0  0  0  0  0  0  0
   37.4283   -3.3819   16.8567 C   0  0  0  0  0  0  0  0  0  0  0  0
   36.9364   -2.1616   16.3530 C   0  0  0  0  0  0  0  0  0  0  0  0
   37.8009   -1.3545   15.5868 C   0  0  0  0  0  0  0  0  0  0  0  0
   39.1176   -1.7554   15.3416 C   0  0  0  0  0  0  0  0  0  0  0  0
   41.2747   -4.2333   15.9324 H   0  0  0  0  0  0  0  0  0  0  0  0
   36.0282    0.2056   18.0047 C   0  0  0  0  0  0  0  0  0  0  0  0
   35.7974    1.2551   17.1012 C   0  0  0  0  0  0  0  0  0  0  0  0
   36.5998    2.3993   17.1223 C   0  0  0  0  0  0  0  0  0  0  0  0
   37.6576    2.5077   18.0441 C   0  0  0  0  0  0  0  0  0  0  0  0
   37.8901    1.4605   18.9416 C   0  0  0  0  0  0  0  0  0  0  0  0
   37.0886    0.3163   18.9221 C   0  0  0  0  0  0  0  0  0  0  0  0
   38.4994    3.6283   18.0956 O   0  0  0  0  0  0  0  0  0  0  0  0
   38.4706    4.7008   17.1558 C   0  0  0  0  0  0  0  0  0  0  0  0
   38.4287    6.0384   17.8953 C   0  0  0  0  0  0  0  0  0  0  0  0
   39.4069    6.0693   19.0017 N   0  0  0  0  0  0  0  0  0  0  0  0
   39.1898    7.2256   19.8817 C   0  0  0  0  0  0  0  0  0  0  0  0
   40.5533    7.6738   20.4013 C   0  0  0  0  0  0  0  0  0  0  0  0
   41.5728    6.8237   19.6630 C   0  0  0  0  0  0  0  0  0  0  0  0
   42.0692    5.8402   20.5047 F   0  0  0  0  0  0  0  0  0  0  0  0
   40.7913    6.1860   18.5316 C   0  0  0  0  0  0  0  0  0  0  0  0
 13 14  1  0  0  0
 14 15  2  0  0  0
 15 16  1  0  0  0
 16 17  2  0  0  0
 17  1  1  0  0  0
  1  2  1  0  0  0
  2  3  1  0  0  0
  3  4  2  0  0  0
  4  5  1  0  0  0
  5  6  1  0  0  0
  5  7  2  0  0  0
  7  8  1  0  0  0
  8  9  2  0  0  0
  9 10  1  0  0  0
 10 11  1  0  0  0
 11 21  1  0  0  0
 21 22  2  0  0  0
 22 23  1  0  0  0
 23 24  2  0  0  0
 24 27  1  0  0  0
 27 28  1  0  0  0
 28 29  1  0  0  0
 29 30  1  0  0  0
 30 31  1  0  0  0
 31 32  1  0  0  0
 32 33  1  0  0  0
 33 34  1  0  0  0
 33 35  1  0  0  0
 24 25  1  0  0  0
 25 26  2  0  0  0
 17 18  1  0  0  0
 18 19  2  0  0  0
 19 14  1  0  0  0
 11  1  1  0  0  0
 26 21  1  0  0  0
  9  3  1  0  0  0
 35 30  1  0  0  0
 13 20  1  0  0  0
  6 12  1  0  0  0
M  END
> <minimizedAffinity>
-8.56601

$$$$
CMP_0


 35 39  0  0  0  0  0  0  0  0999 V2000
   37.3502    0.2299   17.4765 C   0  0  0  0  0  0  0  0  0  0  0  0
   38.1919    1.8038   17.0674 S   0  0  0  0  0  0  0  0  0  0  0  0
   36.8481    2.6441   16.2040 C   0  0  0  0  0  0  0  0  0  0  0  0
   37.1864    3.7079   15.3574 C   0  0  0  0  0  0  0  0  0  0  0  0
   36.1964    4.3866   14.6361 C   0  0  0  0  0  0  0  0  0  0  0  0
   36.5298    5.4485   13.7988 O   0  0  0  0  0  0  0  0  0  0  0  0
   34.8615    3.9942   14.7542 C   0  0  0  0  0  0  0  0  0  0  0  0
   34.5163    2.9242   15.5820 C   0  0  0  0  0  0  0  0  0  0  0  0
   35.4989    2.2416   16.3076 C   0  0  0  0  0  0  0  0  0  0  0  0
   35.1080    1.1371   17.0685 O   0  0  0  0  0  0  0  0  0  0  0  0
   35.9393    0.4998   18.0331 C   0  0  0  0  0  0  0  0  0  0  0  0
   37.4887    5.7586   13.6934 H   0  0  0  0  0  0  0  0  0  0  0  0
   37.3595   -3.8094   13.4041 O   0  0  0  0  0  0  0  0  0  0  0  0
   37.3770   -2.8206   14.3853 C   0  0  0  0  0  0  0  0  0  0  0  0
   37.8578   -3.0974   15.6698 C   0  0  0  0  0  0  0  0  0  0  0  0
   37.8651   -2.0986   16.6466 C   0  0  0  0  0  0  0  0  0  0  0  0
   37.3935   -0.8029   16.3568 C   0  0  0  0  0  0  0  0  0  0  0  0
   36.9095   -0.5392   15.0600 C   0  0  0  0  0  0  0  0  0  0  0  0
   36.9068   -1.5406   14.0843 C   0  0  0  0  0  0  0  0  0  0  0  0
   37.6867   -4.7489   13.5942 H   0  0  0  0  0  0  0  0  0  0  0  0
   35.2878   -0.7733   18.5297 C   0  0  0  0  0  0  0  0  0  0  0  0
   34.1790   -1.3004   17.8487 C   0  0  0  0  0  0  0  0  0  0  0  0
   33.5152   -2.4284   18.3390 C   0  0  0  0  0  0  0  0  0  0  0  0
   33.9450   -3.0434   19.5297 C   0  0  0  0  0  0  0  0  0  0  0  0
   35.0472   -2.5160   20.2104 C   0  0  0  0  0  0  0  0  0  0  0  0
   35.7120   -1.3888   19.7212 C   0  0  0  0  0  0  0  0  0  0  0  0
   33.3041   -4.1678   20.0700 O   0  0  0  0  0  0  0  0  0  0  0  0
   33.0272   -4.3475   21.4576 C   0  0  0  0  0  0  0  0  0  0  0  0
   32.1099   -3.2293   21.9533 C   0  0  0  0  0  0  0  0  0  0  0  0
   32.6905   -2.5397   23.1236 N   0  0  0  0  0  0  0  0  0  0  0  0
   33.1345   -3.4954   24.1473 C   0  0  0  0  0  0  0  0  0  0  0  0
   32.9225   -2.8436   25.5113 C   0  0  0  0  0  0  0  0  0  0  0  0
   32.1977   -1.5379   25.2333 C   0  0  0  0  0  0  0  0  0  0  0  0
   33.0763   -0.4724   25.3543 F   0  0  0  0  0  0  0  0  0  0  0  0
   31.7303   -1.6586   23.7965 C   0  0  0  0  0  0  0  0  0  0  0  0
 13 14  1  0  0  0
 14 15  2  0  0  0
 15 16  1  0  0  0
 16 17  2  0  0  0
 17  1  1  0  0  0
  1  2  1  0  0  0
  2  3  1  0  0  0
  3  4  2  0  0  0
  4  5  1  0  0  0
  5  6  1  0  0  0
  5  7  2  0  0  0
  7  8  1  0  0  0
  8  9  2  0  0  0
  9 10  1  0  0  0
 10 11  1  0  0  0
 11 21  1  0  0  0
 21 22  2  0  0  0
 22 23  1  0  0  0
 23 24  2  0  0  0
 24 27  1  0  0  0
 27 28  1  0  0  0
 28 29  1  0  0  0
 29 30  1  0  0  0
 30 31  1  0  0  0
 31 32  1  0  0  0
 32 33  1  0  0  0
 33 34  1  0  0  0
 33 35  1  0  0  0
 24 25  1  0  0  0
 25 26  2  0  0  0
 17 18  1  0  0  0
 18 19  2  0  0  0
 19 14  1  0  0  0
 11  1  1  0  0  0
 26 21  1  0  0  0
  9  3  1  0  0  0
 35 30  1  0  0  0
 13 20  1  0  0  0
  6 12  1  0  0  0
M  END
> <minimizedAffinity>
-8.56018

$$$$
CMP_0


 35 39  0  0  0  0  0  0  0  0999 V2000
   37.3874    0.8243   17.3839 C   0  0  0  0  0  0  0  0  0  0  0  0
   38.1040    2.4788   17.0648 S   0  0  0  0  0  0  0  0  0  0  0  0
   36.7653    3.2006   16.0932 C   0  0  0  0  0  0  0  0  0  0  0  0
   37.0708    4.3065   15.2893 C   0  0  0  0  0  0  0  0  0  0  0  0
   36.0860    4.8991   14.4891 C   0  0  0  0  0  0  0  0  0  0  0  0
   36.3861    6.0025   13.6939 O   0  0  0  0  0  0  0  0  0  0  0  0
   34.7906    4.3778   14.4849 C   0  0  0  0  0  0  0  0  0  0  0  0
   34.4805    3.2653   15.2695 C   0  0  0  0  0  0  0  0  0  0  0  0
   35.4578    2.6681   16.0733 C   0  0  0  0  0  0  0  0  0  0  0  0
   35.1117    1.5180   16.7868 O   0  0  0  0  0  0  0  0  0  0  0  0
   35.9138    0.9472   17.8156 C   0  0  0  0  0  0  0  0  0  0  0  0
   37.3156    6.4054   13.6766 H   0  0  0  0  0  0  0  0  0  0  0  0
   38.1822   -3.1365   13.3119 O   0  0  0  0  0  0  0  0  0  0  0  0
   38.0066   -2.1626   14.2925 C   0  0  0  0  0  0  0  0  0  0  0  0
   38.5637   -2.3229   15.5660 C   0  0  0  0  0  0  0  0  0  0  0  0
   38.3758   -1.3416   16.5425 C   0  0  0  0  0  0  0  0  0  0  0  0
   37.6289   -0.1800   16.2634 C   0  0  0  0  0  0  0  0  0  0  0  0
   37.0714   -0.0333   14.9776 C   0  0  0  0  0  0  0  0  0  0  0  0
   37.2643   -1.0161   14.0021 C   0  0  0  0  0  0  0  0  0  0  0  0
   38.7090   -3.9820   13.4945 H   0  0  0  0  0  0  0  0  0  0  0  0
   35.3487   -0.3912   18.2413 C   0  0  0  0  0  0  0  0  0  0  0  0
   35.8586   -1.0322   19.3816 C   0  0  0  0  0  0  0  0  0  0  0  0
   35.4061   -2.3043   19.7429 C   0  0  0  0  0  0  0  0  0  0  0  0
   34.4403   -2.9633   18.9597 C   0  0  0  0  0  0  0  0  0  0  0  0
   33.9352   -2.3265   17.8214 C   0  0  0  0  0  0  0  0  0  0  0  0
   34.3861   -1.0546   17.4593 C   0  0  0  0  0  0  0  0  0  0  0  0
   33.9649   -4.2452   19.2719 O   0  0  0  0  0  0  0  0  0  0  0  0
   33.3085   -5.1083   18.3452 C   0  0  0  0  0  0  0  0  0  0  0  0
   34.3292   -6.0383   17.6888 C   0  0  0  0  0  0  0  0  0  0  0  0
   34.4000   -5.8117   16.2308 N   0  0  0  0  0  0  0  0  0  0  0  0
   35.4969   -4.8997   15.8792 C   0  0  0  0  0  0  0  0  0  0  0  0
   35.0525   -4.0882   14.6651 C   0  0  0  0  0  0  0  0  0  0  0  0
   33.5996   -4.4643   14.4303 C   0  0  0  0  0  0  0  0  0  0  0  0
   33.5002   -5.3173   13.3420 F   0  0  0  0  0  0  0  0  0  0  0  0
   33.1842   -5.1917   15.6936 C   0  0  0  0  0  0  0  0  0  0  0  0
 13 14  1  0  0  0
 14 15  2  0  0  0
 15 16  1  0  0  0
 16 17  2  0  0  0
 17  1  1  0  0  0
  1  2  1  0  0  0
  2  3  1  0  0  0
  3  4  2  0  0  0
  4  5  1  0  0  0
  5  6  1  0  0  0
  5  7  2  0  0  0
  7  8  1  0  0  0
  8  9  2  0  0  0
  9 10  1  0  0  0
 10 11  1  0  0  0
 11 21  1  0  0  0
 21 22  2  0  0  0
 22 23  1  0  0  0
 23 24  2  0  0  0
 24 27  1  0  0  0
 27 28  1  0  0  0
 28 29  1  0  0  0
 29 30  1  0  0  0
 30 31  1  0  0  0
 31 32  1  0  0  0
 32 33  1  0  0  0
 33 34  1  0  0  0
 33 35  1  0  0  0
 24 25  1  0  0  0
 25 26  2  0  0  0
 17 18  1  0  0  0
 18 19  2  0  0  0
 19 14  1  0  0  0
 11  1  1  0  0  0
 26 21  1  0  0  0
  9  3  1  0  0  0
 35 30  1  0  0  0
 13 20  1  0  0  0
  6 12  1  0  0  0
M  END
> <minimizedAffinity>
-8.36247

$$$$
CMP_0


 35 39  0  0  0  0  0  0  0  0999 V2000
   37.6169   -1.4591   17.5995 C   0  0  0  0  0  0  0  0  0  0  0  0
   38.5303   -0.2318   16.6111 S   0  0  0  0  0  0  0  0  0  0  0  0
   37.1034    0.7489   16.1364 C   0  0  0  0  0  0  0  0  0  0  0  0
   37.1099    1.3723   14.8822 C   0  0  0  0  0  0  0  0  0  0  0  0
   36.0612    2.2239   14.5082 C   0  0  0  0  0  0  0  0  0  0  0  0
   36.0671    2.8563   13.2666 O   0  0  0  0  0  0  0  0  0  0  0  0
   35.0013    2.4472   15.3914 C   0  0  0  0  0  0  0  0  0  0  0  0
   34.9769    1.8068   16.6328 C   0  0  0  0  0  0  0  0  0  0  0  0
   36.0116    0.9394   17.0053 C   0  0  0  0  0  0  0  0  0  0  0  0
   35.8718    0.2162   18.1975 O   0  0  0  0  0  0  0  0  0  0  0  0
   36.8058   -0.7412   18.7069 C   0  0  0  0  0  0  0  0  0  0  0  0
   36.8148    2.7067   12.6000 H   0  0  0  0  0  0  0  0  0  0  0  0
   35.0514   -5.3330   14.2311 O   0  0  0  0  0  0  0  0  0  0  0  0
   35.6534   -4.3761   15.0453 C   0  0  0  0  0  0  0  0  0  0  0  0
   36.8590   -4.6738   15.6833 C   0  0  0  0  0  0  0  0  0  0  0  0
   37.4714   -3.7248   16.5062 C   0  0  0  0  0  0  0  0  0  0  0  0
   36.8833   -2.4612   16.7149 C   0  0  0  0  0  0  0  0  0  0  0  0
   35.6768   -2.1649   16.0469 C   0  0  0  0  0  0  0  0  0  0  0  0
   35.0648   -3.1187   15.2278 C   0  0  0  0  0  0  0  0  0  0  0  0
   34.1770   -5.1471   13.7530 H   0  0  0  0  0  0  0  0  0  0  0  0
   36.1196   -1.7312   19.6275 C   0  0  0  0  0  0  0  0  0  0  0  0
   36.8530   -2.5710   20.4850 C   0  0  0  0  0  0  0  0  0  0  0  0
   36.1973   -3.4581   21.3425 C   0  0  0  0  0  0  0  0  0  0  0  0
   34.7918   -3.5268   21.3568 C   0  0  0  0  0  0  0  0  0  0  0  0
   34.0614   -2.6708   20.5247 C   0  0  0  0  0  0  0  0  0  0  0  0
   34.7156   -1.7848   19.6645 C   0  0  0  0  0  0  0  0  0  0  0  0
   34.0806   -4.4089   22.1866 O   0  0  0  0  0  0  0  0  0  0  0  0
   32.8946   -4.0968   22.9207 C   0  0  0  0  0  0  0  0  0  0  0  0
   33.2230   -3.2416   24.1511 C   0  0  0  0  0  0  0  0  0  0  0  0
   31.9888   -2.7510   24.8089 N   0  0  0  0  0  0  0  0  0  0  0  0
   31.6903   -1.3642   24.4240 C   0  0  0  0  0  0  0  0  0  0  0  0
   32.3814   -0.4545   25.4219 C   0  0  0  0  0  0  0  0  0  0  0  0
   32.5091   -1.2876   26.6840 C   0  0  0  0  0  0  0  0  0  0  0  0
   31.6432   -0.8230   27.6605 F   0  0  0  0  0  0  0  0  0  0  0  0
   32.1355   -2.7115   26.2763 C   0  0  0  0  0  0  0  0  0  0  0  0
 13 14  1  0  0  0
 14 15  2  0  0  0
 15 16  1  0  0  0
 16 17  2  0  0  0
 17  1  1  0  0  0
  1  2  1  0  0  0
  2  3  1  0  0  0
  3  4  2  0  0  0
  4  5  1  0  0  0
  5  6  1  0  0  0
  5  7  2  0  0  0
  7  8  1  0  0  0
  8  9  2  0  0  0
  9 10  1  0  0  0
 10 11  1  0  0  0
 11 21  1  0  0  0
 21 22  2  0  0  0
 22 23  1  0  0  0
 23 24  2  0  0  0
 24 27  1  0  0  0
 27 28  1  0  0  0
 28 29  1  0  0  0
 29 30  1  0  0  0
 30 31  1  0  0  0
 31 32  1  0  0  0
 32 33  1  0  0  0
 33 34  1  0  0  0
 33 35  1  0  0  0
 24 25  1  0  0  0
 25 26  2  0  0  0
 17 18  1  0  0  0
 18 19  2  0  0  0
 19 14  1  0  0  0
 11  1  1  0  0  0
 26 21  1  0  0  0
  9  3  1  0  0  0
 35 30  1  0  0  0
 13 20  1  0  0  0
  6 12  1  0  0  0
M  END
> <minimizedAffinity>
-9.17673

$$$$
CMP_0


 35 39  0  0  0  0  0  0  0  0999 V2000
   37.7728   -0.2812   17.6401 C   0  0  0  0  0  0  0  0  0  0  0  0
   38.5390    1.1833   16.8749 S   0  0  0  0  0  0  0  0  0  0  0  0
   37.0352    1.8435   16.1498 C   0  0  0  0  0  0  0  0  0  0  0  0
   37.1278    2.5328   14.9340 C   0  0  0  0  0  0  0  0  0  0  0  0
   35.9965    3.1467   14.3790 C   0  0  0  0  0  0  0  0  0  0  0  0
   36.0840    3.8438   13.1758 O   0  0  0  0  0  0  0  0  0  0  0  0
   34.7686    3.0655   15.0417 C   0  0  0  0  0  0  0  0  0  0  0  0
   34.6654    2.3563   16.2410 C   0  0  0  0  0  0  0  0  0  0  0  0
   35.7873    1.7239   16.7915 C   0  0  0  0  0  0  0  0  0  0  0  0
   35.6026    0.9115   17.9183 O   0  0  0  0  0  0  0  0  0  0  0  0
   36.6242    0.1599   18.5814 C   0  0  0  0  0  0  0  0  0  0  0  0
   36.9564    3.9118   12.6657 H   0  0  0  0  0  0  0  0  0  0  0  0
   36.8655   -4.3831   13.7303 O   0  0  0  0  0  0  0  0  0  0  0  0
   37.0609   -3.3783   14.6753 C   0  0  0  0  0  0  0  0  0  0  0  0
   38.2534   -3.3361   15.4002 C   0  0  0  0  0  0  0  0  0  0  0  0
   38.4606   -2.3362   16.3542 C   0  0  0  0  0  0  0  0  0  0  0  0
   37.4731   -1.3636   16.6087 C   0  0  0  0  0  0  0  0  0  0  0  0
   36.2822   -1.4040   15.8539 C   0  0  0  0  0  0  0  0  0  0  0  0
   36.0767   -2.4086   14.9033 C   0  0  0  0  0  0  0  0  0  0  0  0
   36.0116   -4.4401   13.1868 H   0  0  0  0  0  0  0  0  0  0  0  0
   36.0315   -1.0181   19.3294 C   0  0  0  0  0  0  0  0  0  0  0  0
   34.6801   -1.3798   19.1831 C   0  0  0  0  0  0  0  0  0  0  0  0
   34.1625   -2.4847   19.8639 C   0  0  0  0  0  0  0  0  0  0  0  0
   34.9865   -3.2496   20.7102 C   0  0  0  0  0  0  0  0  0  0  0  0
   36.3379   -2.9073   20.8332 C   0  0  0  0  0  0  0  0  0  0  0  0
   36.8567   -1.8009   20.1550 C   0  0  0  0  0  0  0  0  0  0  0  0
   34.5172   -4.3605   21.4299 O   0  0  0  0  0  0  0  0  0  0  0  0
   33.4035   -4.3693   22.3258 C   0  0  0  0  0  0  0  0  0  0  0  0
   33.6440   -3.4186   23.5054 C   0  0  0  0  0  0  0  0  0  0  0  0
   32.4095   -3.2306   24.3037 N   0  0  0  0  0  0  0  0  0  0  0  0
   31.8457   -1.8868   24.1123 C   0  0  0  0  0  0  0  0  0  0  0  0
   32.4602   -0.9801   25.1618 C   0  0  0  0  0  0  0  0  0  0  0  0
   32.8420   -1.9072   26.3011 C   0  0  0  0  0  0  0  0  0  0  0  0
   32.0023   -1.7128   27.3857 F   0  0  0  0  0  0  0  0  0  0  0  0
   32.6803   -3.3229   25.7509 C   0  0  0  0  0  0  0  0  0  0  0  0
 13 14  1  0  0  0
 14 15  2  0  0  0
 15 16  1  0  0  0
 16 17  2  0  0  0
 17  1  1  0  0  0
  1  2  1  0  0  0
  2  3  1  0  0  0
  3  4  2  0  0  0
  4  5  1  0  0  0
  5  6  1  0  0  0
  5  7  2  0  0  0
  7  8  1  0  0  0
  8  9  2  0  0  0
  9 10  1  0  0  0
 10 11  1  0  0  0
 11 21  1  0  0  0
 21 22  2  0  0  0
 22 23  1  0  0  0
 23 24  2  0  0  0
 24 27  1  0  0  0
 27 28  1  0  0  0
 28 29  1  0  0  0
 29 30  1  0  0  0
 30 31  1  0  0  0
 31 32  1  0  0  0
 32 33  1  0  0  0
 33 34  1  0  0  0
 33 35  1  0  0  0
 24 25  1  0  0  0
 25 26  2  0  0  0
 17 18  1  0  0  0
 18 19  2  0  0  0
 19 14  1  0  0  0
 11  1  1  0  0  0
 26 21  1  0  0  0
  9  3  1  0  0  0
 35 30  1  0  0  0
 13 20  1  0  0  0
  6 12  1  0  0  0
M  END
> <minimizedAffinity>
-8.87631

$$$$
CMP_0


 35 39  0  0  0  0  0  0  0  0999 V2000
   36.3429   -4.3410   17.9990 C   0  0  0  0  0  0  0  0  0  0  0  0
   37.4400   -4.1793   16.5541 S   0  0  0  0  0  0  0  0  0  0  0  0
   36.9678   -2.5004   16.1279 C   0  0  0  0  0  0  0  0  0  0  0  0
   36.9668   -2.1304   14.7770 C   0  0  0  0  0  0  0  0  0  0  0  0
   36.6978   -0.8060   14.4048 C   0  0  0  0  0  0  0  0  0  0  0  0
   36.7065   -0.4286   13.0635 O   0  0  0  0  0  0  0  0  0  0  0  0
   36.4243    0.1485   15.3885 C   0  0  0  0  0  0  0  0  0  0  0  0
   36.3977   -0.2215   16.7354 C   0  0  0  0  0  0  0  0  0  0  0  0
   36.6464   -1.5470   17.1133 C   0  0  0  0  0  0  0  0  0  0  0  0
   36.4711   -1.8953   18.4593 O   0  0  0  0  0  0  0  0  0  0  0  0
   36.6380   -3.2055   19.0106 C   0  0  0  0  0  0  0  0  0  0  0  0
   36.8903   -1.0985   12.3264 H   0  0  0  0  0  0  0  0  0  0  0  0
   30.9311   -5.4069   16.4144 O   0  0  0  0  0  0  0  0  0  0  0  0
   32.2416   -5.1225   16.7921 C   0  0  0  0  0  0  0  0  0  0  0  0
   33.0211   -6.1198   17.3810 C   0  0  0  0  0  0  0  0  0  0  0  0
   34.3358   -5.8469   17.7686 C   0  0  0  0  0  0  0  0  0  0  0  0
   34.8933   -4.5660   17.5830 C   0  0  0  0  0  0  0  0  0  0  0  0
   34.1028   -3.5737   16.9666 C   0  0  0  0  0  0  0  0  0  0  0  0
   32.7864   -3.8494   16.5842 C   0  0  0  0  0  0  0  0  0  0  0  0
   30.3401   -4.7051   15.9832 H   0  0  0  0  0  0  0  0  0  0  0  0
   35.8281   -3.3659   20.2822 C   0  0  0  0  0  0  0  0  0  0  0  0
   34.6275   -2.6618   20.4852 C   0  0  0  0  0  0  0  0  0  0  0  0
   33.8855   -2.8449   21.6548 C   0  0  0  0  0  0  0  0  0  0  0  0
   34.3322   -3.7344   22.6495 C   0  0  0  0  0  0  0  0  0  0  0  0
   35.5116   -4.4566   22.4349 C   0  0  0  0  0  0  0  0  0  0  0  0
   36.2564   -4.2728   21.2668 C   0  0  0  0  0  0  0  0  0  0  0  0
   33.6355   -3.9468   23.8503 O   0  0  0  0  0  0  0  0  0  0  0  0
   32.4351   -3.2828   24.2517 C   0  0  0  0  0  0  0  0  0  0  0  0
   32.4393   -3.0125   25.7617 C   0  0  0  0  0  0  0  0  0  0  0  0
   31.9226   -1.6570   26.0659 N   0  0  0  0  0  0  0  0  0  0  0  0
   31.3309   -1.5971   27.4100 C   0  0  0  0  0  0  0  0  0  0  0  0
   29.8601   -1.9437   27.2773 C   0  0  0  0  0  0  0  0  0  0  0  0
   29.4989   -1.5669   25.8523 C   0  0  0  0  0  0  0  0  0  0  0  0
   28.6919   -0.4411   25.8389 F   0  0  0  0  0  0  0  0  0  0  0  0
   30.8265   -1.2774   25.1544 C   0  0  0  0  0  0  0  0  0  0  0  0
 13 14  1  0  0  0
 14 15  2  0  0  0
 15 16  1  0  0  0
 16 17  2  0  0  0
 17  1  1  0  0  0
  1  2  1  0  0  0
  2  3  1  0  0  0
  3  4  2  0  0  0
  4  5  1  0  0  0
  5  6  1  0  0  0
  5  7  2  0  0  0
  7  8  1  0  0  0
  8  9  2  0  0  0
  9 10  1  0  0  0
 10 11  1  0  0  0
 11 21  1  0  0  0
 21 22  2  0  0  0
 22 23  1  0  0  0
 23 24  2  0  0  0
 24 27  1  0  0  0
 27 28  1  0  0  0
 28 29  1  0  0  0
 29 30  1  0  0  0
 30 31  1  0  0  0
 31 32  1  0  0  0
 32 33  1  0  0  0
 33 34  1  0  0  0
 33 35  1  0  0  0
 24 25  1  0  0  0
 25 26  2  0  0  0
 17 18  1  0  0  0
 18 19  2  0  0  0
 19 14  1  0  0  0
 11  1  1  0  0  0
 26 21  1  0  0  0
  9  3  1  0  0  0
 35 30  1  0  0  0
 13 20  1  0  0  0
  6 12  1  0  0  0
M  END
> <minimizedAffinity>
-8.65717

$$$$
CMP_0


 35 39  0  0  0  0  0  0  0  0999 V2000
   38.0962    0.0014   17.4430 C   0  0  0  0  0  0  0  0  0  0  0  0
   38.6534    1.5841   16.7345 S   0  0  0  0  0  0  0  0  0  0  0  0
   37.0513    2.1030   16.1123 C   0  0  0  0  0  0  0  0  0  0  0  0
   37.0066    2.8628   14.9365 C   0  0  0  0  0  0  0  0  0  0  0  0
   35.7875    3.3700   14.4659 C   0  0  0  0  0  0  0  0  0  0  0  0
   35.7375    4.1362   13.3032 O   0  0  0  0  0  0  0  0  0  0  0  0
   34.6100    3.1110   15.1729 C   0  0  0  0  0  0  0  0  0  0  0  0
   34.6456    2.3312   16.3315 C   0  0  0  0  0  0  0  0  0  0  0  0
   35.8573    1.8049   16.7969 C   0  0  0  0  0  0  0  0  0  0  0  0
   35.8202    0.9171   17.8805 O   0  0  0  0  0  0  0  0  0  0  0  0
   36.9513    0.2547   18.4554 C   0  0  0  0  0  0  0  0  0  0  0  0
   36.5711    4.3326   12.7625 H   0  0  0  0  0  0  0  0  0  0  0  0
   37.4737   -3.9536   13.3315 O   0  0  0  0  0  0  0  0  0  0  0  0
   37.5987   -2.9881   14.3280 C   0  0  0  0  0  0  0  0  0  0  0  0
   38.8290   -2.8078   14.9627 C   0  0  0  0  0  0  0  0  0  0  0  0
   38.9671   -1.8458   15.9670 C   0  0  0  0  0  0  0  0  0  0  0  0
   37.8725   -1.0514   16.3630 C   0  0  0  0  0  0  0  0  0  0  0  0
   36.6410   -1.2281   15.6985 C   0  0  0  0  0  0  0  0  0  0  0  0
   36.5056   -2.1946   14.6972 C   0  0  0  0  0  0  0  0  0  0  0  0
   36.5945   -4.1078   12.8508 H   0  0  0  0  0  0  0  0  0  0  0  0
   36.5328   -1.0227   19.1565 C   0  0  0  0  0  0  0  0  0  0  0  0
   37.4795   -1.9058   19.7064 C   0  0  0  0  0  0  0  0  0  0  0  0
   37.0686   -3.0648   20.3698 C   0  0  0  0  0  0  0  0  0  0  0  0
   35.6999   -3.3673   20.4932 C   0  0  0  0  0  0  0  0  0  0  0  0
   34.7571   -2.4742   19.9716 C   0  0  0  0  0  0  0  0  0  0  0  0
   35.1663   -1.3158   19.3054 C   0  0  0  0  0  0  0  0  0  0  0  0
   35.2302   -4.5243   21.1361 O   0  0  0  0  0  0  0  0  0  0  0  0
   35.3631   -5.8634   20.6544 C   0  0  0  0  0  0  0  0  0  0  0  0
   34.3997   -6.1229   19.4893 C   0  0  0  0  0  0  0  0  0  0  0  0
   35.1095   -6.7030   18.3247 N   0  0  0  0  0  0  0  0  0  0  0  0
   36.4390   -6.1007   18.1518 C   0  0  0  0  0  0  0  0  0  0  0  0
   36.2805   -4.8978   17.2414 C   0  0  0  0  0  0  0  0  0  0  0  0
   35.0457   -5.1981   16.4118 C   0  0  0  0  0  0  0  0  0  0  0  0
   35.3989   -5.4789   15.1020 F   0  0  0  0  0  0  0  0  0  0  0  0
   34.4008   -6.4206   17.0621 C   0  0  0  0  0  0  0  0  0  0  0  0
 13 14  1  0  0  0
 14 15  2  0  0  0
 15 16  1  0  0  0
 16 17  2  0  0  0
 17  1  1  0  0  0
  1  2  1  0  0  0
  2  3  1  0  0  0
  3  4  2  0  0  0
  4  5  1  0  0  0
  5  6  1  0  0  0
  5  7  2  0  0  0
  7  8  1  0  0  0
  8  9  2  0  0  0
  9 10  1  0  0  0
 10 11  1  0  0  0
 11 21  1  0  0  0
 21 22  2  0  0  0
 22 23  1  0  0  0
 23 24  2  0  0  0
 24 27  1  0  0  0
 27 28  1  0  0  0
 28 29  1  0  0  0
 29 30  1  0  0  0
 30 31  1  0  0  0
 31 32  1  0  0  0
 32 33  1  0  0  0
 33 34  1  0  0  0
 33 35  1  0  0  0
 24 25  1  0  0  0
 25 26  2  0  0  0
 17 18  1  0  0  0
 18 19  2  0  0  0
 19 14  1  0  0  0
 11  1  1  0  0  0
 26 21  1  0  0  0
  9  3  1  0  0  0
 35 30  1  0  0  0
 13 20  1  0  0  0
  6 12  1  0  0  0
M  END
> <minimizedAffinity>
-8.64678

$$$$
CMP_0


 35 39  0  0  0  0  0  0  0  0999 V2000
   37.1953    0.5290   17.8742 C   0  0  0  0  0  0  0  0  0  0  0  0
   37.8763    2.2156   17.7803 S   0  0  0  0  0  0  0  0  0  0  0  0
   36.7513    2.8186   16.5178 C   0  0  0  0  0  0  0  0  0  0  0  0
   37.2225    3.7697   15.6038 C   0  0  0  0  0  0  0  0  0  0  0  0
   36.3543    4.3386   14.6618 C   0  0  0  0  0  0  0  0  0  0  0  0
   36.8137    5.2937   13.7572 O   0  0  0  0  0  0  0  0  0  0  0  0
   35.0121    3.9499   14.6327 C   0  0  0  0  0  0  0  0  0  0  0  0
   34.5435    2.9821   15.5247 C   0  0  0  0  0  0  0  0  0  0  0  0
   35.4097    2.3951   16.4558 C   0  0  0  0  0  0  0  0  0  0  0  0
   34.9259    1.3331   17.2316 O   0  0  0  0  0  0  0  0  0  0  0  0
   35.6812    0.5924   18.1956 C   0  0  0  0  0  0  0  0  0  0  0  0
   37.7826    5.5886   13.7453 H   0  0  0  0  0  0  0  0  0  0  0  0
   39.0720   -2.6491   13.4796 O   0  0  0  0  0  0  0  0  0  0  0  0
   38.5933   -1.8738   14.5335 C   0  0  0  0  0  0  0  0  0  0  0  0
   39.3645   -1.7285   15.6882 C   0  0  0  0  0  0  0  0  0  0  0  0
   38.8944   -0.9572   16.7545 C   0  0  0  0  0  0  0  0  0  0  0  0
   37.6373   -0.3235   16.6898 C   0  0  0  0  0  0  0  0  0  0  0  0
   36.8779   -0.4599   15.5090 C   0  0  0  0  0  0  0  0  0  0  0  0
   37.3497   -1.2360   14.4459 C   0  0  0  0  0  0  0  0  0  0  0  0
   38.5368   -2.7728   12.6275 H   0  0  0  0  0  0  0  0  0  0  0  0
   35.0945   -0.7909   18.3972 C   0  0  0  0  0  0  0  0  0  0  0  0
   34.1477   -1.3272   17.5060 C   0  0  0  0  0  0  0  0  0  0  0  0
   33.6397   -2.6144   17.6988 C   0  0  0  0  0  0  0  0  0  0  0  0
   34.0659   -3.3917   18.7917 C   0  0  0  0  0  0  0  0  0  0  0  0
   35.0294   -2.8695   19.6620 C   0  0  0  0  0  0  0  0  0  0  0  0
   35.5366   -1.5811   19.4722 C   0  0  0  0  0  0  0  0  0  0  0  0
   33.5789   -4.6849   19.0429 O   0  0  0  0  0  0  0  0  0  0  0  0
   33.8717   -5.8546   18.2754 C   0  0  0  0  0  0  0  0  0  0  0  0
   35.3092   -6.3272   18.5271 C   0  0  0  0  0  0  0  0  0  0  0  0
   36.0189   -6.5899   17.2527 N   0  0  0  0  0  0  0  0  0  0  0  0
   37.4045   -6.1019   17.2994 C   0  0  0  0  0  0  0  0  0  0  0  0
   37.4005   -4.6676   16.8055 C   0  0  0  0  0  0  0  0  0  0  0  0
   36.1851   -4.5710   15.9018 C   0  0  0  0  0  0  0  0  0  0  0  0
   36.5743   -4.4696   14.5761 F   0  0  0  0  0  0  0  0  0  0  0  0
   35.4009   -5.8622   16.1280 C   0  0  0  0  0  0  0  0  0  0  0  0
 13 14  1  0  0  0
 14 15  2  0  0  0
 15 16  1  0  0  0
 16 17  2  0  0  0
 17  1  1  0  0  0
  1  2  1  0  0  0
  2  3  1  0  0  0
  3  4  2  0  0  0
  4  5  1  0  0  0
  5  6  1  0  0  0
  5  7  2  0  0  0
  7  8  1  0  0  0
  8  9  2  0  0  0
  9 10  1  0  0  0
 10 11  1  0  0  0
 11 21  1  0  0  0
 21 22  2  0  0  0
 22 23  1  0  0  0
 23 24  2  0  0  0
 24 27  1  0  0  0
 27 28  1  0  0  0
 28 29  1  0  0  0
 29 30  1  0  0  0
 30 31  1  0  0  0
 31 32  1  0  0  0
 32 33  1  0  0  0
 33 34  1  0  0  0
 33 35  1  0  0  0
 24 25  1  0  0  0
 25 26  2  0  0  0
 17 18  1  0  0  0
 18 19  2  0  0  0
 19 14  1  0  0  0
 11  1  1  0  0  0
 26 21  1  0  0  0
  9  3  1  0  0  0
 35 30  1  0  0  0
 13 20  1  0  0  0
  6 12  1  0  0  0
M  END
> <minimizedAffinity>
-8.46170

$$$$
CMP_0


 35 39  0  0  0  0  0  0  0  0999 V2000
   37.5689   -0.4969   14.3956 C   0  0  0  0  0  0  0  0  0  0  0  0
   38.4926    0.4898   13.1747 S   0  0  0  0  0  0  0  0  0  0  0  0
   40.1228   -0.1241   13.6095 C   0  0  0  0  0  0  0  0  0  0  0  0
   41.2158    0.7437   13.4909 C   0  0  0  0  0  0  0  0  0  0  0  0
   42.5176    0.2809   13.7277 C   0  0  0  0  0  0  0  0  0  0  0  0
   43.6104    1.1359   13.6003 O   0  0  0  0  0  0  0  0  0  0  0  0
   42.7238   -1.0535   14.0888 C   0  0  0  0  0  0  0  0  0  0  0  0
   41.6345   -1.9161   14.2345 C   0  0  0  0  0  0  0  0  0  0  0  0
   40.3295   -1.4557   14.0185 C   0  0  0  0  0  0  0  0  0  0  0  0
   39.2660   -2.3197   14.3123 O   0  0  0  0  0  0  0  0  0  0  0  0
   37.8756   -2.0018   14.1932 C   0  0  0  0  0  0  0  0  0  0  0  0
   43.4936    2.1106   13.3508 H   0  0  0  0  0  0  0  0  0  0  0  0
   37.9501    1.8258   19.6296 O   0  0  0  0  0  0  0  0  0  0  0  0
   37.8801    1.2484   18.3636 C   0  0  0  0  0  0  0  0  0  0  0  0
   36.7748    1.5034   17.5498 C   0  0  0  0  0  0  0  0  0  0  0  0
   36.6899    0.9272   16.2794 C   0  0  0  0  0  0  0  0  0  0  0  0
   37.7062    0.0756   15.8022 C   0  0  0  0  0  0  0  0  0  0  0  0
   38.8280   -0.1561   16.6252 C   0  0  0  0  0  0  0  0  0  0  0  0
   38.9073    0.4187   17.8974 C   0  0  0  0  0  0  0  0  0  0  0  0
   38.7398    1.6615   20.2437 H   0  0  0  0  0  0  0  0  0  0  0  0
   37.0401   -2.8707   15.1127 C   0  0  0  0  0  0  0  0  0  0  0  0
   35.6503   -2.6919   15.2342 C   0  0  0  0  0  0  0  0  0  0  0  0
   34.8975   -3.5213   16.0694 C   0  0  0  0  0  0  0  0  0  0  0  0
   35.5213   -4.5460   16.8051 C   0  0  0  0  0  0  0  0  0  0  0  0
   36.8995   -4.7426   16.6620 C   0  0  0  0  0  0  0  0  0  0  0  0
   37.6544   -3.9122   15.8291 C   0  0  0  0  0  0  0  0  0  0  0  0
   34.8175   -5.3995   17.6703 O   0  0  0  0  0  0  0  0  0  0  0  0
   34.9080   -5.4075   19.0967 C   0  0  0  0  0  0  0  0  0  0  0  0
   34.0242   -4.3118   19.7062 C   0  0  0  0  0  0  0  0  0  0  0  0
   34.8075   -3.4245   20.5983 N   0  0  0  0  0  0  0  0  0  0  0  0
   34.4953   -2.0088   20.3563 C   0  0  0  0  0  0  0  0  0  0  0  0
   35.4536   -1.5050   19.2938 C   0  0  0  0  0  0  0  0  0  0  0  0
   36.6718   -2.4021   19.4121 C   0  0  0  0  0  0  0  0  0  0  0  0
   37.7378   -1.7023   19.9535 F   0  0  0  0  0  0  0  0  0  0  0  0
   36.2558   -3.5401   20.3422 C   0  0  0  0  0  0  0  0  0  0  0  0
 13 14  1  0  0  0
 14 15  2  0  0  0
 15 16  1  0  0  0
 16 17  2  0  0  0
 17  1  1  0  0  0
  1  2  1  0  0  0
  2  3  1  0  0  0
  3  4  2  0  0  0
  4  5  1  0  0  0
  5  6  1  0  0  0
  5  7  2  0  0  0
  7  8  1  0  0  0
  8  9  2  0  0  0
  9 10  1  0  0  0
 10 11  1  0  0  0
 11 21  1  0  0  0
 21 22  2  0  0  0
 22 23  1  0  0  0
 23 24  2  0  0  0
 24 27  1  0  0  0
 27 28  1  0  0  0
 28 29  1  0  0  0
 29 30  1  0  0  0
 30 31  1  0  0  0
 31 32  1  0  0  0
 32 33  1  0  0  0
 33 34  1  0  0  0
 33 35  1  0  0  0
 24 25  1  0  0  0
 25 26  2  0  0  0
 17 18  1  0  0  0
 18 19  2  0  0  0
 19 14  1  0  0  0
 11  1  1  0  0  0
 26 21  1  0  0  0
  9  3  1  0  0  0
 35 30  1  0  0  0
 13 20  1  0  0  0
  6 12  1  0  0  0
M  END
> <minimizedAffinity>
-8.45160

$$$$
CMP_0


 35 39  0  0  0  0  0  0  0  0999 V2000
   35.2664   -1.4946   16.6358 C   0  0  0  0  0  0  0  0  0  0  0  0
   33.9952   -2.7918   16.4985 S   0  0  0  0  0  0  0  0  0  0  0  0
   34.2074   -3.4594   18.1515 C   0  0  0  0  0  0  0  0  0  0  0  0
   34.0044   -4.8314   18.3479 C   0  0  0  0  0  0  0  0  0  0  0  0
   34.0657   -5.3799   19.6364 C   0  0  0  0  0  0  0  0  0  0  0  0
   33.8534   -6.7418   19.8402 O   0  0  0  0  0  0  0  0  0  0  0  0
   34.3358   -4.5523   20.7298 C   0  0  0  0  0  0  0  0  0  0  0  0
   34.5655   -3.1880   20.5359 C   0  0  0  0  0  0  0  0  0  0  0  0
   34.5252   -2.6363   19.2491 C   0  0  0  0  0  0  0  0  0  0  0  0
   34.8987   -1.2948   19.0923 O   0  0  0  0  0  0  0  0  0  0  0  0
   34.9575   -0.5849   17.8510 C   0  0  0  0  0  0  0  0  0  0  0  0
   33.6663   -7.3697   19.0679 H   0  0  0  0  0  0  0  0  0  0  0  0
   40.5194   -3.7071   15.9681 O   0  0  0  0  0  0  0  0  0  0  0  0
   39.2463   -3.1734   16.1567 C   0  0  0  0  0  0  0  0  0  0  0  0
   38.5410   -2.6697   15.0622 C   0  0  0  0  0  0  0  0  0  0  0  0
   37.2650   -2.1276   15.2378 C   0  0  0  0  0  0  0  0  0  0  0  0
   36.6733   -2.0699   16.5155 C   0  0  0  0  0  0  0  0  0  0  0  0
   37.3871   -2.6025   17.6094 C   0  0  0  0  0  0  0  0  0  0  0  0
   38.6654   -3.1401   17.4303 C   0  0  0  0  0  0  0  0  0  0  0  0
   41.0563   -4.0820   16.7420 H   0  0  0  0  0  0  0  0  0  0  0  0
   35.9251    0.5791   17.9375 C   0  0  0  0  0  0  0  0  0  0  0  0
   36.8335    0.7049   19.0040 C   0  0  0  0  0  0  0  0  0  0  0  0
   37.7327    1.7734   19.0492 C   0  0  0  0  0  0  0  0  0  0  0  0
   37.7388    2.7424   18.0288 C   0  0  0  0  0  0  0  0  0  0  0  0
   36.8549    2.6016   16.9529 C   0  0  0  0  0  0  0  0  0  0  0  0
   35.9530    1.5349   16.9074 C   0  0  0  0  0  0  0  0  0  0  0  0
   38.6095    3.8443   18.0298 O   0  0  0  0  0  0  0  0  0  0  0  0
   38.4278    5.0570   17.2954 C   0  0  0  0  0  0  0  0  0  0  0  0
   39.7791    5.7061   16.9700 C   0  0  0  0  0  0  0  0  0  0  0  0
   39.9144    7.0251   17.6322 N   0  0  0  0  0  0  0  0  0  0  0  0
   41.1949    7.1393   18.3447 C   0  0  0  0  0  0  0  0  0  0  0  0
   40.9758    6.6404   19.7604 C   0  0  0  0  0  0  0  0  0  0  0  0
   39.4976    6.8591   20.0253 C   0  0  0  0  0  0  0  0  0  0  0  0
   39.3153    7.8953   20.9264 F   0  0  0  0  0  0  0  0  0  0  0  0
   38.8861    7.2177   18.6723 C   0  0  0  0  0  0  0  0  0  0  0  0
 13 14  1  0  0  0
 14 15  2  0  0  0
 15 16  1  0  0  0
 16 17  2  0  0  0
 17  1  1  0  0  0
  1  2  1  0  0  0
  2  3  1  0  0  0
  3  4  2  0  0  0
  4  5  1  0  0  0
  5  6  1  0  0  0
  5  7  2  0  0  0
  7  8  1  0  0  0
  8  9  2  0  0  0
  9 10  1  0  0  0
 10 11  1  0  0  0
 11 21  1  0  0  0
 21 22  2  0  0  0
 22 23  1  0  0  0
 23 24  2  0  0  0
 24 27  1  0  0  0
 27 28  1  0  0  0
 28 29  1  0  0  0
 29 30  1  0  0  0
 30 31  1  0  0  0
 31 32  1  0  0  0
 32 33  1  0  0  0
 33 34  1  0  0  0
 33 35  1  0  0  0
 24 25  1  0  0  0
 25 26  2  0  0  0
 17 18  1  0  0  0
 18 19  2  0  0  0
 19 14  1  0  0  0
 11  1  1  0  0  0
 26 21  1  0  0  0
  9  3  1  0  0  0
 35 30  1  0  0  0
 13 20  1  0  0  0
  6 12  1  0  0  0
M  END
> <minimizedAffinity>
-8.35758

$$$$
CMP_0


 35 39  0  0  0  0  0  0  0  0999 V2000
   37.5893   -0.4287   14.3326 C   0  0  0  0  0  0  0  0  0  0  0  0
   38.4864    0.5302   13.0704 S   0  0  0  0  0  0  0  0  0  0  0  0
   40.1302   -0.0404   13.5126 C   0  0  0  0  0  0  0  0  0  0  0  0
   41.2071    0.8411   13.3547 C   0  0  0  0  0  0  0  0  0  0  0  0
   42.5185    0.4090   13.5966 C   0  0  0  0  0  0  0  0  0  0  0  0
   43.5954    1.2774   13.4303 O   0  0  0  0  0  0  0  0  0  0  0  0
   42.7504   -0.9083   14.0022 C   0  0  0  0  0  0  0  0  0  0  0  0
   41.6774   -1.7836   14.1870 C   0  0  0  0  0  0  0  0  0  0  0  0
   40.3630   -1.3532   13.9660 C   0  0  0  0  0  0  0  0  0  0  0  0
   39.3168   -2.2243   14.2986 O   0  0  0  0  0  0  0  0  0  0  0  0
   37.9203   -1.9343   14.1802 C   0  0  0  0  0  0  0  0  0  0  0  0
   43.4599    2.2406   13.1481 H   0  0  0  0  0  0  0  0  0  0  0  0
   37.9956    2.0962   19.4702 O   0  0  0  0  0  0  0  0  0  0  0  0
   37.9178    1.4677   18.2293 C   0  0  0  0  0  0  0  0  0  0  0  0
   36.8806    1.7957   17.3543 C   0  0  0  0  0  0  0  0  0  0  0  0
   36.7881    1.1697   16.1083 C   0  0  0  0  0  0  0  0  0  0  0  0
   37.7276    0.1948   15.7172 C   0  0  0  0  0  0  0  0  0  0  0  0
   38.7834   -0.1112   16.6011 C   0  0  0  0  0  0  0  0  0  0  0  0
   38.8700    0.5140   17.8487 C   0  0  0  0  0  0  0  0  0  0  0  0
   38.7373    1.8812   20.1271 H   0  0  0  0  0  0  0  0  0  0  0  0
   37.1071   -2.7846   15.1363 C   0  0  0  0  0  0  0  0  0  0  0  0
   35.7060   -2.8651   15.0419 C   0  0  0  0  0  0  0  0  0  0  0  0
   34.9801   -3.6750   15.9190 C   0  0  0  0  0  0  0  0  0  0  0  0
   35.6416   -4.4193   16.9134 C   0  0  0  0  0  0  0  0  0  0  0  0
   37.0379   -4.3619   16.9888 C   0  0  0  0  0  0  0  0  0  0  0  0
   37.7653   -3.5502   16.1140 C   0  0  0  0  0  0  0  0  0  0  0  0
   34.9626   -5.2378   17.8306 O   0  0  0  0  0  0  0  0  0  0  0  0
   34.5218   -4.8501   19.1339 C   0  0  0  0  0  0  0  0  0  0  0  0
   32.9906   -4.7791   19.1938 C   0  0  0  0  0  0  0  0  0  0  0  0
   32.5253   -3.3866   19.3967 N   0  0  0  0  0  0  0  0  0  0  0  0
   31.1965   -3.3505   20.0238 C   0  0  0  0  0  0  0  0  0  0  0  0
   30.1660   -3.3534   18.9107 C   0  0  0  0  0  0  0  0  0  0  0  0
   30.8822   -2.7505   17.7163 C   0  0  0  0  0  0  0  0  0  0  0  0
   30.3935   -1.4823   17.4480 F   0  0  0  0  0  0  0  0  0  0  0  0
   32.3555   -2.6793   18.1133 C   0  0  0  0  0  0  0  0  0  0  0  0
 13 14  1  0  0  0
 14 15  2  0  0  0
 15 16  1  0  0  0
 16 17  2  0  0  0
 17  1  1  0  0  0
  1  2  1  0  0  0
  2  3  1  0  0  0
  3  4  2  0  0  0
  4  5  1  0  0  0
  5  6  1  0  0  0
  5  7  2  0  0  0
  7  8  1  0  0  0
  8  9  2  0  0  0
  9 10  1  0  0  0
 10 11  1  0  0  0
 11 21  1  0  0  0
 21 22  2  0  0  0
 22 23  1  0  0  0
 23 24  2  0  0  0
 24 27  1  0  0  0
 27 28  1  0  0  0
 28 29  1  0  0  0
 29 30  1  0  0  0
 30 31  1  0  0  0
 31 32  1  0  0  0
 32 33  1  0  0  0
 33 34  1  0  0  0
 33 35  1  0  0  0
 24 25  1  0  0  0
 25 26  2  0  0  0
 17 18  1  0  0  0
 18 19  2  0  0  0
 19 14  1  0  0  0
 11  1  1  0  0  0
 26 21  1  0  0  0
  9  3  1  0  0  0
 35 30  1  0  0  0
 13 20  1  0  0  0
  6 12  1  0  0  0
M  END
> <minimizedAffinity>
-8.26772

$$$$
CMP_0


 35 39  0  0  0  0  0  0  0  0999 V2000
   36.9085   -4.7080   19.2279 C   0  0  0  0  0  0  0  0  0  0  0  0
   38.4857   -4.9014   18.3376 S   0  0  0  0  0  0  0  0  0  0  0  0
   38.6208   -3.1964   17.7918 C   0  0  0  0  0  0  0  0  0  0  0  0
   39.2310   -2.9374   16.5579 C   0  0  0  0  0  0  0  0  0  0  0  0
   39.4437   -1.6180   16.1352 C   0  0  0  0  0  0  0  0  0  0  0  0
   40.0605   -1.3533   14.9141 O   0  0  0  0  0  0  0  0  0  0  0  0
   39.0397   -0.5558   16.9488 C   0  0  0  0  0  0  0  0  0  0  0  0
   38.4066   -0.8090   18.1682 C   0  0  0  0  0  0  0  0  0  0  0  0
   38.1731   -2.1246   18.5881 C   0  0  0  0  0  0  0  0  0  0  0  0
   37.4128   -2.3238   19.7483 O   0  0  0  0  0  0  0  0  0  0  0  0
   37.0427   -3.5935   20.2954 C   0  0  0  0  0  0  0  0  0  0  0  0
   40.3549   -2.1004   14.2969 H   0  0  0  0  0  0  0  0  0  0  0  0
   32.4955   -4.2233   15.5913 O   0  0  0  0  0  0  0  0  0  0  0  0
   33.5561   -4.3636   16.4837 C   0  0  0  0  0  0  0  0  0  0  0  0
   34.6195   -3.4602   16.4379 C   0  0  0  0  0  0  0  0  0  0  0  0
   35.6918   -3.5919   17.3244 C   0  0  0  0  0  0  0  0  0  0  0  0
   35.7254   -4.6375   18.2687 C   0  0  0  0  0  0  0  0  0  0  0  0
   34.6343   -5.5300   18.3195 C   0  0  0  0  0  0  0  0  0  0  0  0
   33.5653   -5.3976   17.4280 C   0  0  0  0  0  0  0  0  0  0  0  0
   31.7080   -4.8618   15.6002 H   0  0  0  0  0  0  0  0  0  0  0  0
   35.7892   -3.4752   21.1400 C   0  0  0  0  0  0  0  0  0  0  0  0
   34.7160   -2.6515   20.7552 C   0  0  0  0  0  0  0  0  0  0  0  0
   33.5607   -2.5780   21.5375 C   0  0  0  0  0  0  0  0  0  0  0  0
   33.4566   -3.3248   22.7256 C   0  0  0  0  0  0  0  0  0  0  0  0
   34.5124   -4.1666   23.0935 C   0  0  0  0  0  0  0  0  0  0  0  0
   35.6698   -4.2394   22.3135 C   0  0  0  0  0  0  0  0  0  0  0  0
   32.3263   -3.2787   23.5579 O   0  0  0  0  0  0  0  0  0  0  0  0
   31.9605   -2.1954   24.4156 C   0  0  0  0  0  0  0  0  0  0  0  0
   33.0317   -1.9628   25.4887 C   0  0  0  0  0  0  0  0  0  0  0  0
   32.5704   -0.9878   26.5052 N   0  0  0  0  0  0  0  0  0  0  0  0
   32.6491    0.3908   26.0016 C   0  0  0  0  0  0  0  0  0  0  0  0
   34.0229    0.9283   26.3551 C   0  0  0  0  0  0  0  0  0  0  0  0
   34.4506    0.1310   27.5735 C   0  0  0  0  0  0  0  0  0  0  0  0
   34.4285    0.9283   28.7061 F   0  0  0  0  0  0  0  0  0  0  0  0
   33.4340   -1.0019   27.7012 C   0  0  0  0  0  0  0  0  0  0  0  0
 13 14  1  0  0  0
 14 15  2  0  0  0
 15 16  1  0  0  0
 16 17  2  0  0  0
 17  1  1  0  0  0
  1  2  1  0  0  0
  2  3  1  0  0  0
  3  4  2  0  0  0
  4  5  1  0  0  0
  5  6  1  0  0  0
  5  7  2  0  0  0
  7  8  1  0  0  0
  8  9  2  0  0  0
  9 10  1  0  0  0
 10 11  1  0  0  0
 11 21  1  0  0  0
 21 22  2  0  0  0
 22 23  1  0  0  0
 23 24  2  0  0  0
 24 27  1  0  0  0
 27 28  1  0  0  0
 28 29  1  0  0  0
 29 30  1  0  0  0
 30 31  1  0  0  0
 31 32  1  0  0  0
 32 33  1  0  0  0
 33 34  1  0  0  0
 33 35  1  0  0  0
 24 25  1  0  0  0
 25 26  2  0  0  0
 17 18  1  0  0  0
 18 19  2  0  0  0
 19 14  1  0  0  0
 11  1  1  0  0  0
 26 21  1  0  0  0
  9  3  1  0  0  0
 35 30  1  0  0  0
 13 20  1  0  0  0
  6 12  1  0  0  0
M  END
> <minimizedAffinity>
-8.01353

$$$$
CMP_0


 35 39  0  0  0  0  0  0  0  0999 V2000
   37.5370   -1.5791   17.4540 C   0  0  0  0  0  0  0  0  0  0  0  0
   38.4976   -0.3081   16.5651 S   0  0  0  0  0  0  0  0  0  0  0  0
   37.0812    0.7034   16.1378 C   0  0  0  0  0  0  0  0  0  0  0  0
   37.0676    1.3614   14.9016 C   0  0  0  0  0  0  0  0  0  0  0  0
   36.0113    2.2204   14.5704 C   0  0  0  0  0  0  0  0  0  0  0  0
   35.9948    2.8884   13.3481 O   0  0  0  0  0  0  0  0  0  0  0  0
   34.9655    2.4144   15.4771 C   0  0  0  0  0  0  0  0  0  0  0  0
   34.9628    1.7383   16.7002 C   0  0  0  0  0  0  0  0  0  0  0  0
   36.0060    0.8654   17.0300 C   0  0  0  0  0  0  0  0  0  0  0  0
   35.9018    0.1197   18.2120 O   0  0  0  0  0  0  0  0  0  0  0  0
   36.8136   -0.8976   18.6493 C   0  0  0  0  0  0  0  0  0  0  0  0
   36.7402    2.7725   12.6711 H   0  0  0  0  0  0  0  0  0  0  0  0
   34.4840   -4.6482   13.6867 O   0  0  0  0  0  0  0  0  0  0  0  0
   35.2192   -3.9038   14.6065 C   0  0  0  0  0  0  0  0  0  0  0  0
   34.5828   -3.3715   15.7299 C   0  0  0  0  0  0  0  0  0  0  0  0
   35.3057   -2.6229   16.6632 C   0  0  0  0  0  0  0  0  0  0  0  0
   36.6866   -2.3932   16.4836 C   0  0  0  0  0  0  0  0  0  0  0  0
   37.3146   -2.9378   15.3480 C   0  0  0  0  0  0  0  0  0  0  0  0
   36.5881   -3.6857   14.4178 C   0  0  0  0  0  0  0  0  0  0  0  0
   34.9176   -5.0495   12.8633 H   0  0  0  0  0  0  0  0  0  0  0  0
   36.0925   -1.8423   19.6065 C   0  0  0  0  0  0  0  0  0  0  0  0
   34.6944   -1.7376   19.7296 C   0  0  0  0  0  0  0  0  0  0  0  0
   33.9858   -2.5616   20.6076 C   0  0  0  0  0  0  0  0  0  0  0  0
   34.6639   -3.5033   21.4013 C   0  0  0  0  0  0  0  0  0  0  0  0
   36.0556   -3.5892   21.3100 C   0  0  0  0  0  0  0  0  0  0  0  0
   36.7671   -2.7664   20.4327 C   0  0  0  0  0  0  0  0  0  0  0  0
   34.0041   -4.3612   22.2969 O   0  0  0  0  0  0  0  0  0  0  0  0
   32.8901   -4.0080   23.1172 C   0  0  0  0  0  0  0  0  0  0  0  0
   33.3705   -3.2769   24.3893 C   0  0  0  0  0  0  0  0  0  0  0  0
   32.2851   -2.6848   25.2066 N   0  0  0  0  0  0  0  0  0  0  0  0
   32.6185   -2.5445   26.6295 C   0  0  0  0  0  0  0  0  0  0  0  0
   32.8968   -1.0764   26.8930 C   0  0  0  0  0  0  0  0  0  0  0  0
   32.1354   -0.3350   25.8120 C   0  0  0  0  0  0  0  0  0  0  0  0
   32.8944    0.7080   25.3069 F   0  0  0  0  0  0  0  0  0  0  0  0
   31.8363   -1.3673   24.7278 C   0  0  0  0  0  0  0  0  0  0  0  0
 13 14  1  0  0  0
 14 15  2  0  0  0
 15 16  1  0  0  0
 16 17  2  0  0  0
 17  1  1  0  0  0
  1  2  1  0  0  0
  2  3  1  0  0  0
  3  4  2  0  0  0
  4  5  1  0  0  0
  5  6  1  0  0  0
  5  7  2  0  0  0
  7  8  1  0  0  0
  8  9  2  0  0  0
  9 10  1  0  0  0
 10 11  1  0  0  0
 11 21  1  0  0  0
 21 22  2  0  0  0
 22 23  1  0  0  0
 23 24  2  0  0  0
 24 27  1  0  0  0
 27 28  1  0  0  0
 28 29  1  0  0  0
 29 30  1  0  0  0
 30 31  1  0  0  0
 31 32  1  0  0  0
 32 33  1  0  0  0
 33 34  1  0  0  0
 33 35  1  0  0  0
 24 25  1  0  0  0
 25 26  2  0  0  0
 17 18  1  0  0  0
 18 19  2  0  0  0
 19 14  1  0  0  0
 11  1  1  0  0  0
 26 21  1  0  0  0
  9  3  1  0  0  0
 35 30  1  0  0  0
 13 20  1  0  0  0
  6 12  1  0  0  0
M  END
> <minimizedAffinity>
-9.48199

$$$$
CMP_0


 35 39  0  0  0  0  0  0  0  0999 V2000
   36.9769   -0.6901   14.6437 C   0  0  0  0  0  0  0  0  0  0  0  0
   37.8884    0.0784   13.2628 S   0  0  0  0  0  0  0  0  0  0  0  0
   39.5031   -0.4934   13.7898 C   0  0  0  0  0  0  0  0  0  0  0  0
   40.6129    0.3379   13.5930 C   0  0  0  0  0  0  0  0  0  0  0  0
   41.8986   -0.1109   13.9230 C   0  0  0  0  0  0  0  0  0  0  0  0
   43.0099    0.7043   13.7200 O   0  0  0  0  0  0  0  0  0  0  0  0
   42.0702   -1.3914   14.4561 C   0  0  0  0  0  0  0  0  0  0  0  0
   40.9618   -2.2130   14.6788 C   0  0  0  0  0  0  0  0  0  0  0  0
   39.6730   -1.7644   14.3677 C   0  0  0  0  0  0  0  0  0  0  0  0
   38.5836   -2.5735   14.7180 O   0  0  0  0  0  0  0  0  0  0  0  0
   37.1985   -2.2274   14.5799 C   0  0  0  0  0  0  0  0  0  0  0  0
   42.9194    1.6359   13.3311 H   0  0  0  0  0  0  0  0  0  0  0  0
   38.0466    2.1069   19.5391 O   0  0  0  0  0  0  0  0  0  0  0  0
   37.7907    1.4215   18.3537 C   0  0  0  0  0  0  0  0  0  0  0  0
   38.4930    0.2483   18.0692 C   0  0  0  0  0  0  0  0  0  0  0  0
   38.2480   -0.4522   16.8846 C   0  0  0  0  0  0  0  0  0  0  0  0
   37.2902    0.0156   15.9596 C   0  0  0  0  0  0  0  0  0  0  0  0
   36.5888    1.1979   16.2610 C   0  0  0  0  0  0  0  0  0  0  0  0
   36.8368    1.8948   17.4465 C   0  0  0  0  0  0  0  0  0  0  0  0
   37.5518    2.9593   19.7751 H   0  0  0  0  0  0  0  0  0  0  0  0
   36.3730   -3.0521   15.5634 C   0  0  0  0  0  0  0  0  0  0  0  0
   37.0443   -3.9290   16.4358 C   0  0  0  0  0  0  0  0  0  0  0  0
   36.3371   -4.7245   17.3409 C   0  0  0  0  0  0  0  0  0  0  0  0
   34.9327   -4.6752   17.3834 C   0  0  0  0  0  0  0  0  0  0  0  0
   34.2575   -3.8326   16.4963 C   0  0  0  0  0  0  0  0  0  0  0  0
   34.9620   -3.0357   15.5900 C   0  0  0  0  0  0  0  0  0  0  0  0
   34.1698   -5.4472   18.2751 O   0  0  0  0  0  0  0  0  0  0  0  0
   33.7088   -5.0214   19.5576 C   0  0  0  0  0  0  0  0  0  0  0  0
   34.8797   -4.9821   20.5631 C   0  0  0  0  0  0  0  0  0  0  0  0
   35.1703   -3.6390   21.1182 N   0  0  0  0  0  0  0  0  0  0  0  0
   36.6012   -3.3166   21.1817 C   0  0  0  0  0  0  0  0  0  0  0  0
   36.9009   -2.3364   20.0629 C   0  0  0  0  0  0  0  0  0  0  0  0
   35.5790   -1.6498   19.7815 C   0  0  0  0  0  0  0  0  0  0  0  0
   35.3836   -1.5049   18.4178 F   0  0  0  0  0  0  0  0  0  0  0  0
   34.5041   -2.5438   20.3948 C   0  0  0  0  0  0  0  0  0  0  0  0
 13 14  1  0  0  0
 14 15  2  0  0  0
 15 16  1  0  0  0
 16 17  2  0  0  0
 17  1  1  0  0  0
  1  2  1  0  0  0
  2  3  1  0  0  0
  3  4  2  0  0  0
  4  5  1  0  0  0
  5  6  1  0  0  0
  5  7  2  0  0  0
  7  8  1  0  0  0
  8  9  2  0  0  0
  9 10  1  0  0  0
 10 11  1  0  0  0
 11 21  1  0  0  0
 21 22  2  0  0  0
 22 23  1  0  0  0
 23 24  2  0  0  0
 24 27  1  0  0  0
 27 28  1  0  0  0
 28 29  1  0  0  0
 29 30  1  0  0  0
 30 31  1  0  0  0
 31 32  1  0  0  0
 32 33  1  0  0  0
 33 34  1  0  0  0
 33 35  1  0  0  0
 24 25  1  0  0  0
 25 26  2  0  0  0
 17 18  1  0  0  0
 18 19  2  0  0  0
 19 14  1  0  0  0
 11  1  1  0  0  0
 26 21  1  0  0  0
  9  3  1  0  0  0
 35 30  1  0  0  0
 13 20  1  0  0  0
  6 12  1  0  0  0
M  END
> <minimizedAffinity>
-8.82285

$$$$
CMP_0


 35 39  0  0  0  0  0  0  0  0999 V2000
   38.0392    0.0052   17.5985 C   0  0  0  0  0  0  0  0  0  0  0  0
   38.6238    1.6306   17.0112 S   0  0  0  0  0  0  0  0  0  0  0  0
   37.1003    2.0629   16.1722 C   0  0  0  0  0  0  0  0  0  0  0  0
   37.1687    2.7889   14.9766 C   0  0  0  0  0  0  0  0  0  0  0  0
   35.9946    3.2087   14.3373 C   0  0  0  0  0  0  0  0  0  0  0  0
   36.0527    3.9415   13.1539 O   0  0  0  0  0  0  0  0  0  0  0  0
   34.7519    2.8948   14.8944 C   0  0  0  0  0  0  0  0  0  0  0  0
   34.6800    2.1472   16.0730 C   0  0  0  0  0  0  0  0  0  0  0  0
   35.8484    1.7097   16.7073 C   0  0  0  0  0  0  0  0  0  0  0  0
   35.7265    0.8638   17.8179 O   0  0  0  0  0  0  0  0  0  0  0  0
   36.8071    0.2324   18.5187 C   0  0  0  0  0  0  0  0  0  0  0  0
   36.9380    4.1890   12.7271 H   0  0  0  0  0  0  0  0  0  0  0  0
   37.6345   -3.6496   13.1926 O   0  0  0  0  0  0  0  0  0  0  0  0
   37.7250   -2.7635   14.2637 C   0  0  0  0  0  0  0  0  0  0  0  0
   36.5587   -2.2497   14.8351 C   0  0  0  0  0  0  0  0  0  0  0  0
   36.6315   -1.3602   15.9110 C   0  0  0  0  0  0  0  0  0  0  0  0
   37.8823   -0.9677   16.4338 C   0  0  0  0  0  0  0  0  0  0  0  0
   39.0486   -1.4955   15.8492 C   0  0  0  0  0  0  0  0  0  0  0  0
   38.9712   -2.3845   14.7740 C   0  0  0  0  0  0  0  0  0  0  0  0
   38.4621   -4.0413   12.7584 H   0  0  0  0  0  0  0  0  0  0  0  0
   36.2848   -1.0088   19.2366 C   0  0  0  0  0  0  0  0  0  0  0  0
   37.2150   -1.8988   19.8050 C   0  0  0  0  0  0  0  0  0  0  0  0
   36.7937   -3.0621   20.4541 C   0  0  0  0  0  0  0  0  0  0  0  0
   35.4253   -3.3742   20.5354 C   0  0  0  0  0  0  0  0  0  0  0  0
   34.4979   -2.5128   19.9432 C   0  0  0  0  0  0  0  0  0  0  0  0
   34.9162   -1.3486   19.2933 C   0  0  0  0  0  0  0  0  0  0  0  0
   34.9433   -4.5257   21.1796 O   0  0  0  0  0  0  0  0  0  0  0  0
   34.5276   -5.7278   20.5308 C   0  0  0  0  0  0  0  0  0  0  0  0
   35.7561   -6.5427   20.0721 C   0  0  0  0  0  0  0  0  0  0  0  0
   35.8595   -6.7283   18.6053 N   0  0  0  0  0  0  0  0  0  0  0  0
   34.8727   -5.9604   17.8358 C   0  0  0  0  0  0  0  0  0  0  0  0
   35.5964   -4.7856   17.2046 C   0  0  0  0  0  0  0  0  0  0  0  0
   37.0427   -5.2279   17.1022 C   0  0  0  0  0  0  0  0  0  0  0  0
   37.8962   -4.1950   17.4537 F   0  0  0  0  0  0  0  0  0  0  0  0
   37.1888   -6.4068   18.0612 C   0  0  0  0  0  0  0  0  0  0  0  0
 13 14  1  0  0  0
 14 15  2  0  0  0
 15 16  1  0  0  0
 16 17  2  0  0  0
 17  1  1  0  0  0
  1  2  1  0  0  0
  2  3  1  0  0  0
  3  4  2  0  0  0
  4  5  1  0  0  0
  5  6  1  0  0  0
  5  7  2  0  0  0
  7  8  1  0  0  0
  8  9  2  0  0  0
  9 10  1  0  0  0
 10 11  1  0  0  0
 11 21  1  0  0  0
 21 22  2  0  0  0
 22 23  1  0  0  0
 23 24  2  0  0  0
 24 27  1  0  0  0
 27 28  1  0  0  0
 28 29  1  0  0  0
 29 30  1  0  0  0
 30 31  1  0  0  0
 31 32  1  0  0  0
 32 33  1  0  0  0
 33 34  1  0  0  0
 33 35  1  0  0  0
 24 25  1  0  0  0
 25 26  2  0  0  0
 17 18  1  0  0  0
 18 19  2  0  0  0
 19 14  1  0  0  0
 11  1  1  0  0  0
 26 21  1  0  0  0
  9  3  1  0  0  0
 35 30  1  0  0  0
 13 20  1  0  0  0
  6 12  1  0  0  0
M  END
> <minimizedAffinity>
-8.73222

$$$$
CMP_0


 35 39  0  0  0  0  0  0  0  0999 V2000
   37.2470    0.6926   17.9320 C   0  0  0  0  0  0  0  0  0  0  0  0
   37.7992    2.4304   17.9910 S   0  0  0  0  0  0  0  0  0  0  0  0
   36.7570    2.9827   16.6417 C   0  0  0  0  0  0  0  0  0  0  0  0
   37.2434    3.9639   15.7687 C   0  0  0  0  0  0  0  0  0  0  0  0
   36.4250    4.4722   14.7513 C   0  0  0  0  0  0  0  0  0  0  0  0
   36.8959    5.4567   13.8854 O   0  0  0  0  0  0  0  0  0  0  0  0
   35.1206    3.9917   14.6060 C   0  0  0  0  0  0  0  0  0  0  0  0
   34.6416    2.9933   15.4585 C   0  0  0  0  0  0  0  0  0  0  0  0
   35.4596    2.4687   16.4658 C   0  0  0  0  0  0  0  0  0  0  0  0
   34.9797    1.3882   17.2181 O   0  0  0  0  0  0  0  0  0  0  0  0
   35.7174    0.6564   18.2069 C   0  0  0  0  0  0  0  0  0  0  0  0
   37.8351    5.8290   13.9674 H   0  0  0  0  0  0  0  0  0  0  0  0
   39.3328   -1.8736   13.2419 O   0  0  0  0  0  0  0  0  0  0  0  0
   38.8191   -1.2525   14.3781 C   0  0  0  0  0  0  0  0  0  0  0  0
   37.4574   -0.9486   14.4428 C   0  0  0  0  0  0  0  0  0  0  0  0
   36.9254   -0.3263   15.5757 C   0  0  0  0  0  0  0  0  0  0  0  0
   37.7549    0.0049   16.6684 C   0  0  0  0  0  0  0  0  0  0  0  0
   39.1244   -0.3096   16.5898 C   0  0  0  0  0  0  0  0  0  0  0  0
   39.6520   -0.9319   15.4554 C   0  0  0  0  0  0  0  0  0  0  0  0
   40.3155   -2.1091   13.1660 H   0  0  0  0  0  0  0  0  0  0  0  0
   35.1098   -0.7349   18.3610 C   0  0  0  0  0  0  0  0  0  0  0  0
   34.1043   -1.1336   17.4607 C   0  0  0  0  0  0  0  0  0  0  0  0
   33.4974   -2.3874   17.5692 C   0  0  0  0  0  0  0  0  0  0  0  0
   33.8708   -3.2707   18.5973 C   0  0  0  0  0  0  0  0  0  0  0  0
   34.8439   -2.8681   19.5158 C   0  0  0  0  0  0  0  0  0  0  0  0
   35.4528   -1.6148   19.4098 C   0  0  0  0  0  0  0  0  0  0  0  0
   33.2996   -4.5447   18.7523 O   0  0  0  0  0  0  0  0  0  0  0  0
   33.8673   -5.7710   18.2913 C   0  0  0  0  0  0  0  0  0  0  0  0
   33.4695   -6.0280   16.8219 C   0  0  0  0  0  0  0  0  0  0  0  0
   34.6045   -6.0363   15.8688 N   0  0  0  0  0  0  0  0  0  0  0  0
   34.4037   -5.1781   14.6945 C   0  0  0  0  0  0  0  0  0  0  0  0
   35.2586   -3.9385   14.8806 C   0  0  0  0  0  0  0  0  0  0  0  0
   36.3740   -4.3702   15.8120 C   0  0  0  0  0  0  0  0  0  0  0  0
   36.6292   -3.3899   16.7568 F   0  0  0  0  0  0  0  0  0  0  0  0
   35.8897   -5.6563   16.4770 C   0  0  0  0  0  0  0  0  0  0  0  0
 13 14  1  0  0  0
 14 15  2  0  0  0
 15 16  1  0  0  0
 16 17  2  0  0  0
 17  1  1  0  0  0
  1  2  1  0  0  0
  2  3  1  0  0  0
  3  4  2  0  0  0
  4  5  1  0  0  0
  5  6  1  0  0  0
  5  7  2  0  0  0
  7  8  1  0  0  0
  8  9  2  0  0  0
  9 10  1  0  0  0
 10 11  1  0  0  0
 11 21  1  0  0  0
 21 22  2  0  0  0
 22 23  1  0  0  0
 23 24  2  0  0  0
 24 27  1  0  0  0
 27 28  1  0  0  0
 28 29  1  0  0  0
 29 30  1  0  0  0
 30 31  1  0  0  0
 31 32  1  0  0  0
 32 33  1  0  0  0
 33 34  1  0  0  0
 33 35  1  0  0  0
 24 25  1  0  0  0
 25 26  2  0  0  0
 17 18  1  0  0  0
 18 19  2  0  0  0
 19 14  1  0  0  0
 11  1  1  0  0  0
 26 21  1  0  0  0
  9  3  1  0  0  0
 35 30  1  0  0  0
 13 20  1  0  0  0
  6 12  1  0  0  0
M  END
> <minimizedAffinity>
-8.73107

$$$$
CMP_0


 35 39  0  0  0  0  0  0  0  0999 V2000
   36.3776   -2.4084   20.2375 C   0  0  0  0  0  0  0  0  0  0  0  0
   36.4836   -3.9904   21.1399 S   0  0  0  0  0  0  0  0  0  0  0  0
   36.7634   -4.9955   19.6826 C   0  0  0  0  0  0  0  0  0  0  0  0
   36.2055   -6.2789   19.6283 C   0  0  0  0  0  0  0  0  0  0  0  0
   36.4695   -7.1180   18.5376 C   0  0  0  0  0  0  0  0  0  0  0  0
   35.9286   -8.4005   18.4802 O   0  0  0  0  0  0  0  0  0  0  0  0
   37.2885   -6.6672   17.4987 C   0  0  0  0  0  0  0  0  0  0  0  0
   37.8247   -5.3772   17.5372 C   0  0  0  0  0  0  0  0  0  0  0  0
   37.5508   -4.5276   18.6152 C   0  0  0  0  0  0  0  0  0  0  0  0
   38.0104   -3.2051   18.5543 O   0  0  0  0  0  0  0  0  0  0  0  0
   37.7293   -2.1708   19.5075 C   0  0  0  0  0  0  0  0  0  0  0  0
   35.3348   -8.7585   19.2195 H   0  0  0  0  0  0  0  0  0  0  0  0
   31.4928   -2.2701   17.2288 O   0  0  0  0  0  0  0  0  0  0  0  0
   32.6818   -2.2985   17.9539 C   0  0  0  0  0  0  0  0  0  0  0  0
   33.8525   -1.7977   17.3802 C   0  0  0  0  0  0  0  0  0  0  0  0
   35.0541   -1.8178   18.0943 C   0  0  0  0  0  0  0  0  0  0  0  0
   35.1022   -2.3448   19.4026 C   0  0  0  0  0  0  0  0  0  0  0  0
   33.9141   -2.8437   19.9684 C   0  0  0  0  0  0  0  0  0  0  0  0
   32.7152   -2.8215   19.2510 C   0  0  0  0  0  0  0  0  0  0  0  0
   30.6266   -2.6235   17.6183 H   0  0  0  0  0  0  0  0  0  0  0  0
   37.8825   -0.8101   18.8339 C   0  0  0  0  0  0  0  0  0  0  0  0
   38.5989   -0.7345   17.6249 C   0  0  0  0  0  0  0  0  0  0  0  0
   38.7893    0.4885   16.9768 C   0  0  0  0  0  0  0  0  0  0  0  0
   38.2804    1.6746   17.5342 C   0  0  0  0  0  0  0  0  0  0  0  0
   37.5979    1.6121   18.7520 C   0  0  0  0  0  0  0  0  0  0  0  0
   37.4058    0.3904   19.4026 C   0  0  0  0  0  0  0  0  0  0  0  0
   38.4363    2.9309   16.9254 O   0  0  0  0  0  0  0  0  0  0  0  0
   37.3842    3.8552   16.6472 C   0  0  0  0  0  0  0  0  0  0  0  0
   37.1138    3.9197   15.1285 C   0  0  0  0  0  0  0  0  0  0  0  0
   35.8872    3.2124   14.6906 N   0  0  0  0  0  0  0  0  0  0  0  0
   36.1285    1.8524   14.1927 C   0  0  0  0  0  0  0  0  0  0  0  0
   35.6668    0.8828   15.2646 C   0  0  0  0  0  0  0  0  0  0  0  0
   34.6294    1.6480   16.0621 C   0  0  0  0  0  0  0  0  0  0  0  0
   34.7848    1.4140   17.4186 F   0  0  0  0  0  0  0  0  0  0  0  0
   34.8527    3.1221   15.7337 C   0  0  0  0  0  0  0  0  0  0  0  0
 13 14  1  0  0  0
 14 15  2  0  0  0
 15 16  1  0  0  0
 16 17  2  0  0  0
 17  1  1  0  0  0
  1  2  1  0  0  0
  2  3  1  0  0  0
  3  4  2  0  0  0
  4  5  1  0  0  0
  5  6  1  0  0  0
  5  7  2  0  0  0
  7  8  1  0  0  0
  8  9  2  0  0  0
  9 10  1  0  0  0
 10 11  1  0  0  0
 11 21  1  0  0  0
 21 22  2  0  0  0
 22 23  1  0  0  0
 23 24  2  0  0  0
 24 27  1  0  0  0
 27 28  1  0  0  0
 28 29  1  0  0  0
 29 30  1  0  0  0
 30 31  1  0  0  0
 31 32  1  0  0  0
 32 33  1  0  0  0
 33 34  1  0  0  0
 33 35  1  0  0  0
 24 25  1  0  0  0
 25 26  2  0  0  0
 17 18  1  0  0  0
 18 19  2  0  0  0
 19 14  1  0  0  0
 11  1  1  0  0  0
 26 21  1  0  0  0
  9  3  1  0  0  0
 35 30  1  0  0  0
 13 20  1  0  0  0
  6 12  1  0  0  0
M  END
> <minimizedAffinity>
-8.72226

$$$$
CMP_0


 35 39  0  0  0  0  0  0  0  0999 V2000
   37.4599    0.4953   18.4581 C   0  0  0  0  0  0  0  0  0  0  0  0
   37.9145    2.2622   18.4639 S   0  0  0  0  0  0  0  0  0  0  0  0
   36.9206    2.6951   17.0368 C   0  0  0  0  0  0  0  0  0  0  0  0
   37.4015    3.6622   16.1453 C   0  0  0  0  0  0  0  0  0  0  0  0
   36.6148    4.0783   15.0631 C   0  0  0  0  0  0  0  0  0  0  0  0
   37.0797    5.0482   14.1777 O   0  0  0  0  0  0  0  0  0  0  0  0
   35.3479    3.5198   14.8719 C   0  0  0  0  0  0  0  0  0  0  0  0
   34.8764    2.5350   15.7443 C   0  0  0  0  0  0  0  0  0  0  0  0
   35.6642    2.1021   16.8171 C   0  0  0  0  0  0  0  0  0  0  0  0
   35.2017    1.0309   17.5933 O   0  0  0  0  0  0  0  0  0  0  0  0
   35.9215    0.3860   18.6532 C   0  0  0  0  0  0  0  0  0  0  0  0
   37.9917    5.4757   14.2915 H   0  0  0  0  0  0  0  0  0  0  0  0
   39.9180   -2.0809   13.9577 O   0  0  0  0  0  0  0  0  0  0  0  0
   39.3153   -1.4609   15.0500 C   0  0  0  0  0  0  0  0  0  0  0  0
   37.9860   -1.7532   15.3630 C   0  0  0  0  0  0  0  0  0  0  0  0
   37.3663   -1.1407   16.4560 C   0  0  0  0  0  0  0  0  0  0  0  0
   38.0730   -0.2183   17.2571 C   0  0  0  0  0  0  0  0  0  0  0  0
   39.4124    0.0645   16.9308 C   0  0  0  0  0  0  0  0  0  0  0  0
   40.0280   -0.5503   15.8374 C   0  0  0  0  0  0  0  0  0  0  0  0
   40.8814   -1.8915   13.7067 H   0  0  0  0  0  0  0  0  0  0  0  0
   35.3814   -1.0288   18.8406 C   0  0  0  0  0  0  0  0  0  0  0  0
   36.0197   -1.8758   19.7658 C   0  0  0  0  0  0  0  0  0  0  0  0
   35.5816   -3.1880   19.9611 C   0  0  0  0  0  0  0  0  0  0  0  0
   34.4997   -3.6935   19.2192 C   0  0  0  0  0  0  0  0  0  0  0  0
   33.8829   -2.8695   18.2740 C   0  0  0  0  0  0  0  0  0  0  0  0
   34.3189   -1.5566   18.0763 C   0  0  0  0  0  0  0  0  0  0  0  0
   34.0125   -5.0016   19.3767 O   0  0  0  0  0  0  0  0  0  0  0  0
   33.8865   -5.9717   18.3367 C   0  0  0  0  0  0  0  0  0  0  0  0
   35.2042   -6.0782   17.5392 C   0  0  0  0  0  0  0  0  0  0  0  0
   35.0337   -6.0946   16.0671 N   0  0  0  0  0  0  0  0  0  0  0  0
   33.6334   -6.0471   15.6282 C   0  0  0  0  0  0  0  0  0  0  0  0
   33.3615   -4.6463   15.1124 C   0  0  0  0  0  0  0  0  0  0  0  0
   34.7174   -4.1161   14.6901 C   0  0  0  0  0  0  0  0  0  0  0  0
   34.8687   -2.7950   15.0783 F   0  0  0  0  0  0  0  0  0  0  0  0
   35.7482   -5.0083   15.3772 C   0  0  0  0  0  0  0  0  0  0  0  0
 13 14  1  0  0  0
 14 15  2  0  0  0
 15 16  1  0  0  0
 16 17  2  0  0  0
 17  1  1  0  0  0
  1  2  1  0  0  0
  2  3  1  0  0  0
  3  4  2  0  0  0
  4  5  1  0  0  0
  5  6  1  0  0  0
  5  7  2  0  0  0
  7  8  1  0  0  0
  8  9  2  0  0  0
  9 10  1  0  0  0
 10 11  1  0  0  0
 11 21  1  0  0  0
 21 22  2  0  0  0
 22 23  1  0  0  0
 23 24  2  0  0  0
 24 27  1  0  0  0
 27 28  1  0  0  0
 28 29  1  0  0  0
 29 30  1  0  0  0
 30 31  1  0  0  0
 31 32  1  0  0  0
 32 33  1  0  0  0
 33 34  1  0  0  0
 33 35  1  0  0  0
 24 25  1  0  0  0
 25 26  2  0  0  0
 17 18  1  0  0  0
 18 19  2  0  0  0
 19 14  1  0  0  0
 11  1  1  0  0  0
 26 21  1  0  0  0
  9  3  1  0  0  0
 35 30  1  0  0  0
 13 20  1  0  0  0
  6 12  1  0  0  0
M  END
> <minimizedAffinity>
-8.60592

$$$$
CMP_0


 35 39  0  0  0  0  0  0  0  0999 V2000
   33.2996   -2.9362   18.1637 C   0  0  0  0  0  0  0  0  0  0  0  0
   33.0660   -3.3667   16.4063 S   0  0  0  0  0  0  0  0  0  0  0  0
   34.7255   -3.9999   16.1674 C   0  0  0  0  0  0  0  0  0  0  0  0
   35.3603   -3.7875   14.9372 C   0  0  0  0  0  0  0  0  0  0  0  0
   36.6262   -4.3359   14.6919 C   0  0  0  0  0  0  0  0  0  0  0  0
   37.2605   -4.1401   13.4672 O   0  0  0  0  0  0  0  0  0  0  0  0
   37.2577   -5.0923   15.6831 C   0  0  0  0  0  0  0  0  0  0  0  0
   36.6385   -5.2832   16.9213 C   0  0  0  0  0  0  0  0  0  0  0  0
   35.3818   -4.7236   17.1792 C   0  0  0  0  0  0  0  0  0  0  0  0
   34.8535   -4.8401   18.4720 O   0  0  0  0  0  0  0  0  0  0  0  0
   33.6409   -4.2367   18.9440 C   0  0  0  0  0  0  0  0  0  0  0  0
   36.8272   -3.6005   12.7266 H   0  0  0  0  0  0  0  0  0  0  0  0
   36.8399    1.5647   18.5389 O   0  0  0  0  0  0  0  0  0  0  0  0
   35.9816    0.4707   18.4557 C   0  0  0  0  0  0  0  0  0  0  0  0
   35.9537   -0.4654   19.4917 C   0  0  0  0  0  0  0  0  0  0  0  0
   35.0978   -1.5685   19.4246 C   0  0  0  0  0  0  0  0  0  0  0  0
   34.2517   -1.7531   18.3102 C   0  0  0  0  0  0  0  0  0  0  0  0
   34.2891   -0.8003   17.2751 C   0  0  0  0  0  0  0  0  0  0  0  0
   35.1461    0.3009   17.3465 C   0  0  0  0  0  0  0  0  0  0  0  0
   36.8813    2.2621   17.8049 H   0  0  0  0  0  0  0  0  0  0  0  0
   33.7069   -4.0945   20.4620 C   0  0  0  0  0  0  0  0  0  0  0  0
   32.5939   -3.5593   21.1368 C   0  0  0  0  0  0  0  0  0  0  0  0
   32.6082   -3.3857   22.5231 C   0  0  0  0  0  0  0  0  0  0  0  0
   33.7488   -3.7284   23.2701 C   0  0  0  0  0  0  0  0  0  0  0  0
   34.8703   -4.2280   22.6028 C   0  0  0  0  0  0  0  0  0  0  0  0
   34.8590   -4.4028   21.2164 C   0  0  0  0  0  0  0  0  0  0  0  0
   33.8186   -3.5810   24.6653 O   0  0  0  0  0  0  0  0  0  0  0  0
   32.7794   -3.0678   25.4992 C   0  0  0  0  0  0  0  0  0  0  0  0
   33.0023   -1.5645   25.7711 C   0  0  0  0  0  0  0  0  0  0  0  0
   32.3372   -1.0542   26.9933 N   0  0  0  0  0  0  0  0  0  0  0  0
   33.2056   -1.0243   28.1768 C   0  0  0  0  0  0  0  0  0  0  0  0
   33.5938    0.4215   28.4247 C   0  0  0  0  0  0  0  0  0  0  0  0
   32.4835    1.2372   27.7924 C   0  0  0  0  0  0  0  0  0  0  0  0
   33.0031    2.3273   27.1136 F   0  0  0  0  0  0  0  0  0  0  0  0
   31.7623    0.2915   26.8352 C   0  0  0  0  0  0  0  0  0  0  0  0
 13 14  1  0  0  0
 14 15  2  0  0  0
 15 16  1  0  0  0
 16 17  2  0  0  0
 17  1  1  0  0  0
  1  2  1  0  0  0
  2  3  1  0  0  0
  3  4  2  0  0  0
  4  5  1  0  0  0
  5  6  1  0  0  0
  5  7  2  0  0  0
  7  8  1  0  0  0
  8  9  2  0  0  0
  9 10  1  0  0  0
 10 11  1  0  0  0
 11 21  1  0  0  0
 21 22  2  0  0  0
 22 23  1  0  0  0
 23 24  2  0  0  0
 24 27  1  0  0  0
 27 28  1  0  0  0
 28 29  1  0  0  0
 29 30  1  0  0  0
 30 31  1  0  0  0
 31 32  1  0  0  0
 32 33  1  0  0  0
 33 34  1  0  0  0
 33 35  1  0  0  0
 24 25  1  0  0  0
 25 26  2  0  0  0
 17 18  1  0  0  0
 18 19  2  0  0  0
 19 14  1  0  0  0
 11  1  1  0  0  0
 26 21  1  0  0  0
  9  3  1  0  0  0
 35 30  1  0  0  0
 13 20  1  0  0  0
  6 12  1  0  0  0
M  END
> <minimizedAffinity>
-8.54965

$$$$
CMP_0


 35 39  0  0  0  0  0  0  0  0999 V2000
   34.8112   -2.2433   19.0711 C   0  0  0  0  0  0  0  0  0  0  0  0
   34.2059   -3.4584   20.2899 S   0  0  0  0  0  0  0  0  0  0  0  0
   35.6219   -4.5487   20.1561 C   0  0  0  0  0  0  0  0  0  0  0  0
   35.4232   -5.9314   20.2560 C   0  0  0  0  0  0  0  0  0  0  0  0
   36.5180   -6.8056   20.2329 C   0  0  0  0  0  0  0  0  0  0  0  0
   36.3313   -8.1817   20.3435 O   0  0  0  0  0  0  0  0  0  0  0  0
   37.8117   -6.2929   20.1035 C   0  0  0  0  0  0  0  0  0  0  0  0
   38.0111   -4.9155   19.9764 C   0  0  0  0  0  0  0  0  0  0  0  0
   36.9207   -4.0380   19.9811 C   0  0  0  0  0  0  0  0  0  0  0  0
   37.1580   -2.6796   19.7316 O   0  0  0  0  0  0  0  0  0  0  0  0
   36.1572   -1.6621   19.5876 C   0  0  0  0  0  0  0  0  0  0  0  0
   35.4065   -8.5844   20.4431 H   0  0  0  0  0  0  0  0  0  0  0  0
   34.5462   -4.5012   13.8019 O   0  0  0  0  0  0  0  0  0  0  0  0
   34.6178   -3.9501   15.0793 C   0  0  0  0  0  0  0  0  0  0  0  0
   35.8464   -3.5035   15.5707 C   0  0  0  0  0  0  0  0  0  0  0  0
   35.9358   -2.9472   16.8499 C   0  0  0  0  0  0  0  0  0  0  0  0
   34.7882   -2.8302   17.6630 C   0  0  0  0  0  0  0  0  0  0  0  0
   33.5567   -3.2824   17.1534 C   0  0  0  0  0  0  0  0  0  0  0  0
   33.4720   -3.8377   15.8740 C   0  0  0  0  0  0  0  0  0  0  0  0
   33.6693   -4.8318   13.4164 H   0  0  0  0  0  0  0  0  0  0  0  0
   36.7292   -0.5048   18.7739 C   0  0  0  0  0  0  0  0  0  0  0  0
   38.1219   -0.4407   18.5819 C   0  0  0  0  0  0  0  0  0  0  0  0
   38.7017    0.6088   17.8646 C   0  0  0  0  0  0  0  0  0  0  0  0
   37.9001    1.6347   17.3342 C   0  0  0  0  0  0  0  0  0  0  0  0
   36.5201    1.5962   17.5504 C   0  0  0  0  0  0  0  0  0  0  0  0
   35.9372    0.5478   18.2674 C   0  0  0  0  0  0  0  0  0  0  0  0
   38.4263    2.7109   16.6006 O   0  0  0  0  0  0  0  0  0  0  0  0
   38.2901    2.9015   15.1922 C   0  0  0  0  0  0  0  0  0  0  0  0
   39.4088    2.1509   14.4381 C   0  0  0  0  0  0  0  0  0  0  0  0
   38.9314    1.0657   13.5487 N   0  0  0  0  0  0  0  0  0  0  0  0
   39.4135   -0.2692   13.9247 C   0  0  0  0  0  0  0  0  0  0  0  0
   38.2568   -1.0099   14.5696 C   0  0  0  0  0  0  0  0  0  0  0  0
   37.0115   -0.3534   14.0076 C   0  0  0  0  0  0  0  0  0  0  0  0
   36.0608   -0.1779   14.9997 F   0  0  0  0  0  0  0  0  0  0  0  0
   37.4653    0.9904   13.4427 C   0  0  0  0  0  0  0  0  0  0  0  0
 13 14  1  0  0  0
 14 15  2  0  0  0
 15 16  1  0  0  0
 16 17  2  0  0  0
 17  1  1  0  0  0
  1  2  1  0  0  0
  2  3  1  0  0  0
  3  4  2  0  0  0
  4  5  1  0  0  0
  5  6  1  0  0  0
  5  7  2  0  0  0
  7  8  1  0  0  0
  8  9  2  0  0  0
  9 10  1  0  0  0
 10 11  1  0  0  0
 11 21  1  0  0  0
 21 22  2  0  0  0
 22 23  1  0  0  0
 23 24  2  0  0  0
 24 27  1  0  0  0
 27 28  1  0  0  0
 28 29  1  0  0  0
 29 30  1  0  0  0
 30 31  1  0  0  0
 31 32  1  0  0  0
 32 33  1  0  0  0
 33 34  1  0  0  0
 33 35  1  0  0  0
 24 25  1  0  0  0
 25 26  2  0  0  0
 17 18  1  0  0  0
 18 19  2  0  0  0
 19 14  1  0  0  0
 11  1  1  0  0  0
 26 21  1  0  0  0
  9  3  1  0  0  0
 35 30  1  0  0  0
 13 20  1  0  0  0
  6 12  1  0  0  0
M  END
> <minimizedAffinity>
-8.36631

$$$$
CMP_0


 35 39  0  0  0  0  0  0  0  0999 V2000
   35.9253   -1.9421   19.6925 C   0  0  0  0  0  0  0  0  0  0  0  0
   36.8694   -3.0746   20.7669 S   0  0  0  0  0  0  0  0  0  0  0  0
   36.9168   -4.4231   19.5873 C   0  0  0  0  0  0  0  0  0  0  0  0
   36.8364   -5.7389   20.0600 C   0  0  0  0  0  0  0  0  0  0  0  0
   36.9482   -6.8165   19.1714 C   0  0  0  0  0  0  0  0  0  0  0  0
   36.8812   -8.1289   19.6338 O   0  0  0  0  0  0  0  0  0  0  0  0
   37.1348   -6.5738   17.8077 C   0  0  0  0  0  0  0  0  0  0  0  0
   37.1884   -5.2618   17.3295 C   0  0  0  0  0  0  0  0  0  0  0  0
   37.0598   -4.1808   18.2092 C   0  0  0  0  0  0  0  0  0  0  0  0
   36.9999   -2.8881   17.6715 O   0  0  0  0  0  0  0  0  0  0  0  0
   36.7586   -1.6802   18.4066 C   0  0  0  0  0  0  0  0  0  0  0  0
   36.7511   -8.3382   20.6169 H   0  0  0  0  0  0  0  0  0  0  0  0
   30.5286   -3.8346   19.2156 O   0  0  0  0  0  0  0  0  0  0  0  0
   31.8381   -3.3719   19.3241 C   0  0  0  0  0  0  0  0  0  0  0  0
   32.5113   -2.9311   18.1826 C   0  0  0  0  0  0  0  0  0  0  0  0
   33.8253   -2.4629   18.2738 C   0  0  0  0  0  0  0  0  0  0  0  0
   34.4903   -2.4302   19.5182 C   0  0  0  0  0  0  0  0  0  0  0  0
   33.7984   -2.8755   20.6599 C   0  0  0  0  0  0  0  0  0  0  0  0
   32.4849   -3.3425   20.5641 C   0  0  0  0  0  0  0  0  0  0  0  0
   30.0129   -4.1587   20.0255 H   0  0  0  0  0  0  0  0  0  0  0  0
   36.1966   -0.6204   17.4633 C   0  0  0  0  0  0  0  0  0  0  0  0
   36.4250   -0.7600   16.0817 C   0  0  0  0  0  0  0  0  0  0  0  0
   35.9531    0.1922   15.1747 C   0  0  0  0  0  0  0  0  0  0  0  0
   35.2528    1.3225   15.6315 C   0  0  0  0  0  0  0  0  0  0  0  0
   35.0522    1.4855   17.0048 C   0  0  0  0  0  0  0  0  0  0  0  0
   35.5230    0.5348   17.9144 C   0  0  0  0  0  0  0  0  0  0  0  0
   34.7507    2.3088   14.7665 O   0  0  0  0  0  0  0  0  0  0  0  0
   35.3103    3.6083   14.5748 C   0  0  0  0  0  0  0  0  0  0  0  0
   36.6391    3.5109   13.7947 C   0  0  0  0  0  0  0  0  0  0  0  0
   37.8247    4.0068   14.5329 N   0  0  0  0  0  0  0  0  0  0  0  0
   37.4970    4.7906   15.7304 C   0  0  0  0  0  0  0  0  0  0  0  0
   37.7696    3.9161   16.9400 C   0  0  0  0  0  0  0  0  0  0  0  0
   38.8039    2.9123   16.4704 C   0  0  0  0  0  0  0  0  0  0  0  0
   38.5113    1.6468   16.9519 F   0  0  0  0  0  0  0  0  0  0  0  0
   38.7527    2.9412   14.9449 C   0  0  0  0  0  0  0  0  0  0  0  0
 13 14  1  0  0  0
 14 15  2  0  0  0
 15 16  1  0  0  0
 16 17  2  0  0  0
 17  1  1  0  0  0
  1  2  1  0  0  0
  2  3  1  0  0  0
  3  4  2  0  0  0
  4  5  1  0  0  0
  5  6  1  0  0  0
  5  7  2  0  0  0
  7  8  1  0  0  0
  8  9  2  0  0  0
  9 10  1  0  0  0
 10 11  1  0  0  0
 11 21  1  0  0  0
 21 22  2  0  0  0
 22 23  1  0  0  0
 23 24  2  0  0  0
 24 27  1  0  0  0
 27 28  1  0  0  0
 28 29  1  0  0  0
 29 30  1  0  0  0
 30 31  1  0  0  0
 31 32  1  0  0  0
 32 33  1  0  0  0
 33 34  1  0  0  0
 33 35  1  0  0  0
 24 25  1  0  0  0
 25 26  2  0  0  0
 17 18  1  0  0  0
 18 19  2  0  0  0
 19 14  1  0  0  0
 11  1  1  0  0  0
 26 21  1  0  0  0
  9  3  1  0  0  0
 35 30  1  0  0  0
 13 20  1  0  0  0
  6 12  1  0  0  0
M  END
> <minimizedAffinity>
-8.28098

$$$$
CMP_1


 35 39  0  0  0  0  0  0  0  0999 V2000
   36.2548   -3.2982   17.9000 C   0  0  0  0  0  0  0  0  0  0  0  0
   37.2241   -2.7517   16.4446 S   0  0  0  0  0  0  0  0  0  0  0  0
   36.4595   -1.1396   16.1646 C   0  0  0  0  0  0  0  0  0  0  0  0
   36.6242   -0.5519   14.9023 C   0  0  0  0  0  0  0  0  0  0  0  0
   36.0390    0.6875   14.6117 C   0  0  0  0  0  0  0  0  0  0  0  0
   36.2123    1.2800   13.3622 O   0  0  0  0  0  0  0  0  0  0  0  0
   35.2742    1.3376   15.5828 C   0  0  0  0  0  0  0  0  0  0  0  0
   35.0933    0.7542   16.8382 C   0  0  0  0  0  0  0  0  0  0  0  0
   35.6783   -0.4812   17.1389 C   0  0  0  0  0  0  0  0  0  0  0  0
   35.4165   -1.0466   18.3886 O   0  0  0  0  0  0  0  0  0  0  0  0
   36.1273   -2.1570   18.9260 C   0  0  0  0  0  0  0  0  0  0  0  0
   36.7789    0.8442   12.6427 H   0  0  0  0  0  0  0  0  0  0  0  0
   31.2622   -5.8798   16.7579 O   0  0  0  0  0  0  0  0  0  0  0  0
   32.4789   -5.2554   17.0226 C   0  0  0  0  0  0  0  0  0  0  0  0
   32.6854   -3.9391   16.6025 C   0  0  0  0  0  0  0  0  0  0  0  0
   33.8997   -3.2972   16.8626 C   0  0  0  0  0  0  0  0  0  0  0  0
   34.9347   -3.9698   17.5432 C   0  0  0  0  0  0  0  0  0  0  0  0
   34.7111   -5.2949   17.9658 C   0  0  0  0  0  0  0  0  0  0  0  0
   33.4949   -5.9320   17.7066 C   0  0  0  0  0  0  0  0  0  0  0  0
   31.0818   -6.8339   17.0496 H   0  0  0  0  0  0  0  0  0  0  0  0
   35.4726   -2.6295   20.2063 C   0  0  0  0  0  0  0  0  0  0  0  0
   34.1220   -2.3474   20.4775 C   0  0  0  0  0  0  0  0  0  0  0  0
   33.5176   -2.8329   21.6397 C   0  0  0  0  0  0  0  0  0  0  0  0
   34.2402   -3.6177   22.5445 C   0  0  0  0  0  0  0  0  0  0  0  0
   35.5862   -3.9226   22.2636 C   0  0  0  0  0  0  0  0  0  0  0  0
   36.1938   -3.4319   21.1045 C   0  0  0  0  0  0  0  0  0  0  0  0
   33.5804   -4.0761   23.6968 O   0  0  0  0  0  0  0  0  0  0  0  0
   32.4950   -3.4149   24.3475 C   0  0  0  0  0  0  0  0  0  0  0  0
   32.7960   -3.2362   25.8508 C   0  0  0  0  0  0  0  0  0  0  0  0
   33.1243   -1.8483   26.2466 N   0  0  0  0  0  0  0  0  0  0  0  0
   33.1547   -1.6580   27.7159 C   0  0  0  0  0  0  0  0  0  0  0  0
   33.2486   -0.1684   28.1134 C   0  0  0  0  0  0  0  0  0  0  0  0
   33.8280    0.6773   26.9755 C   0  0  0  0  0  0  0  0  0  0  0  0
   32.9712    0.5581   25.7021 C   0  0  0  0  0  0  0  0  0  0  0  0
   32.3124   -0.8267   25.5606 C   0  0  0  0  0  0  0  0  0  0  0  0
 13 14  1  0  0  0
 14 15  2  0  0  0
 15 16  1  0  0  0
 16 17  2  0  0  0
 17  1  1  0  0  0
  1  2  1  0  0  0
  2  3  1  0  0  0
  3  4  2  0  0  0
  4  5  1  0  0  0
  5  6  1  0  0  0
  5  7  2  0  0  0
  7  8  1  0  0  0
  8  9  2  0  0  0
  9 10  1  0  0  0
 10 11  1  0  0  0
 11 21  1  0  0  0
 21 22  2  0  0  0
 22 23  1  0  0  0
 23 24  2  0  0  0
 24 27  1  0  0  0
 27 28  1  0  0  0
 28 29  1  0  0  0
 29 30  1  0  0  0
 30 31  1  0  0  0
 31 32  1  0  0  0
 32 33  1  0  0  0
 33 34  1  0  0  0
 34 35  1  0  0  0
 24 25  1  0  0  0
 25 26  2  0  0  0
 17 18  1  0  0  0
 18 19  2  0  0  0
 19 14  1  0  0  0
 11  1  1  0  0  0
 26 21  1  0  0  0
  9  3  1  0  0  0
 35 30  1  0  0  0
 13 20  1  0  0  0
  6 12  1  0  0  0
M  END
> <minimizedAffinity>
-9.24391

$$$$
CMP_1


 35 39  0  0  0  0  0  0  0  0999 V2000
   37.6871   -1.1110   17.1755 C   0  0  0  0  0  0  0  0  0  0  0  0
   38.4715    0.1081   16.0552 S   0  0  0  0  0  0  0  0  0  0  0  0
   37.0539    1.1826   15.7431 C   0  0  0  0  0  0  0  0  0  0  0  0
   37.1049    2.0163   14.6169 C   0  0  0  0  0  0  0  0  0  0  0  0
   36.0297    2.8587   14.3048 C   0  0  0  0  0  0  0  0  0  0  0  0
   36.0835    3.6981   13.1936 O   0  0  0  0  0  0  0  0  0  0  0  0
   34.8918    2.8590   15.1146 C   0  0  0  0  0  0  0  0  0  0  0  0
   34.8260    2.0227   16.2305 C   0  0  0  0  0  0  0  0  0  0  0  0
   35.8973    1.1816   16.5527 C   0  0  0  0  0  0  0  0  0  0  0  0
   35.7549    0.3234   17.6450 O   0  0  0  0  0  0  0  0  0  0  0  0
   36.8299   -0.3980   18.2375 C   0  0  0  0  0  0  0  0  0  0  0  0
   36.9033    3.7370   12.5977 H   0  0  0  0  0  0  0  0  0  0  0  0
   34.9887   -5.4791   14.6195 O   0  0  0  0  0  0  0  0  0  0  0  0
   35.6497   -4.4148   15.2284 C   0  0  0  0  0  0  0  0  0  0  0  0
   35.1278   -3.1237   15.1179 C   0  0  0  0  0  0  0  0  0  0  0  0
   35.7774   -2.0451   15.7252 C   0  0  0  0  0  0  0  0  0  0  0  0
   36.9708   -2.2424   16.4490 C   0  0  0  0  0  0  0  0  0  0  0  0
   37.4831   -3.5502   16.5569 C   0  0  0  0  0  0  0  0  0  0  0  0
   36.8292   -4.6260   15.9510 C   0  0  0  0  0  0  0  0  0  0  0  0
   35.3422   -6.4274   14.6813 H   0  0  0  0  0  0  0  0  0  0  0  0
   36.3030   -1.3693   19.2721 C   0  0  0  0  0  0  0  0  0  0  0  0
   34.9212   -1.5452   19.4647 C   0  0  0  0  0  0  0  0  0  0  0  0
   34.4495   -2.4817   20.3878 C   0  0  0  0  0  0  0  0  0  0  0  0
   35.3413   -3.2683   21.1245 C   0  0  0  0  0  0  0  0  0  0  0  0
   36.7254   -3.1117   20.9161 C   0  0  0  0  0  0  0  0  0  0  0  0
   37.1987   -2.1704   19.9976 C   0  0  0  0  0  0  0  0  0  0  0  0
   34.8089   -4.1917   22.0394 O   0  0  0  0  0  0  0  0  0  0  0  0
   33.5298   -4.0927   22.6661 C   0  0  0  0  0  0  0  0  0  0  0  0
   33.6774   -3.5805   24.1146 C   0  0  0  0  0  0  0  0  0  0  0  0
   32.4834   -2.8807   24.6391 N   0  0  0  0  0  0  0  0  0  0  0  0
   31.9242   -1.8958   23.6835 C   0  0  0  0  0  0  0  0  0  0  0  0
   30.8430   -1.0005   24.3279 C   0  0  0  0  0  0  0  0  0  0  0  0
   30.2288   -1.6680   25.5620 C   0  0  0  0  0  0  0  0  0  0  0  0
   31.3044   -1.9825   26.6175 C   0  0  0  0  0  0  0  0  0  0  0  0
   32.6699   -2.3167   25.9885 C   0  0  0  0  0  0  0  0  0  0  0  0
 13 14  1  0  0  0
 14 15  2  0  0  0
 15 16  1  0  0  0
 16 17  2  0  0  0
 17  1  1  0  0  0
  1  2  1  0  0  0
  2  3  1  0  0  0
  3  4  2  0  0  0
  4  5  1  0  0  0
  5  6  1  0  0  0
  5  7  2  0  0  0
  7  8  1  0  0  0
  8  9  2  0  0  0
  9 10  1  0  0  0
 10 11  1  0  0  0
 11 21  1  0  0  0
 21 22  2  0  0  0
 22 23  1  0  0  0
 23 24  2  0  0  0
 24 27  1  0  0  0
 27 28  1  0  0  0
 28 29  1  0  0  0
 29 30  1  0  0  0
 30 31  1  0  0  0
 31 32  1  0  0  0
 32 33  1  0  0  0
 33 34  1  0  0  0
 34 35  1  0  0  0
 24 25  1  0  0  0
 25 26  2  0  0  0
 17 18  1  0  0  0
 18 19  2  0  0  0
 19 14  1  0  0  0
 11  1  1  0  0  0
 26 21  1  0  0  0
  9  3  1  0  0  0
 35 30  1  0  0  0
 13 20  1  0  0  0
  6 12  1  0  0  0
M  END
> <minimizedAffinity>
-9.15930

$$$$
CMP_1


 35 39  0  0  0  0  0  0  0  0999 V2000
   38.5894   -1.2447   17.3204 C   0  0  0  0  0  0  0  0  0  0  0  0
   39.7681   -0.1808   16.4063 S   0  0  0  0  0  0  0  0  0  0  0  0
   38.7435    1.2921   16.2005 C   0  0  0  0  0  0  0  0  0  0  0  0
   39.1114    2.2065   15.2033 C   0  0  0  0  0  0  0  0  0  0  0  0
   38.3476    3.3589   14.9764 C   0  0  0  0  0  0  0  0  0  0  0  0
   38.7187    4.2760   13.9948 O   0  0  0  0  0  0  0  0  0  0  0  0
   37.2025    3.5931   15.7410 C   0  0  0  0  0  0  0  0  0  0  0  0
   36.8204    2.6818   16.7272 C   0  0  0  0  0  0  0  0  0  0  0  0
   37.5802    1.5305   16.9641 C   0  0  0  0  0  0  0  0  0  0  0  0
   37.1203    0.6239   17.9215 O   0  0  0  0  0  0  0  0  0  0  0  0
   37.8986   -0.4483   18.4428 C   0  0  0  0  0  0  0  0  0  0  0  0
   39.5557    4.1461   13.4371 H   0  0  0  0  0  0  0  0  0  0  0  0
   34.9360   -4.2726   14.0988 O   0  0  0  0  0  0  0  0  0  0  0  0
   35.8308   -3.5347   14.8703 C   0  0  0  0  0  0  0  0  0  0  0  0
   35.7498   -2.1401   14.8773 C   0  0  0  0  0  0  0  0  0  0  0  0
   36.6385   -1.3849   15.6480 C   0  0  0  0  0  0  0  0  0  0  0  0
   37.6332   -2.0176   16.4209 C   0  0  0  0  0  0  0  0  0  0  0  0
   37.7002   -3.4246   16.4088 C   0  0  0  0  0  0  0  0  0  0  0  0
   36.8081   -4.1759   15.6395 C   0  0  0  0  0  0  0  0  0  0  0  0
   34.9692   -5.2856   14.0726 H   0  0  0  0  0  0  0  0  0  0  0  0
   37.0432   -1.3423   19.3147 C   0  0  0  0  0  0  0  0  0  0  0  0
   35.6493   -1.1696   19.3838 C   0  0  0  0  0  0  0  0  0  0  0  0
   34.8669   -2.0339   20.1536 C   0  0  0  0  0  0  0  0  0  0  0  0
   35.4536   -3.0918   20.8559 C   0  0  0  0  0  0  0  0  0  0  0  0
   36.8464   -3.2823   20.7691 C   0  0  0  0  0  0  0  0  0  0  0  0
   37.6311   -2.4142   20.0046 C   0  0  0  0  0  0  0  0  0  0  0  0
   34.6170   -3.9270   21.6147 O   0  0  0  0  0  0  0  0  0  0  0  0
   33.5386   -4.7077   21.0988 C   0  0  0  0  0  0  0  0  0  0  0  0
   32.2008   -3.9564   21.2664 C   0  0  0  0  0  0  0  0  0  0  0  0
   31.6749   -3.3605   20.0179 N   0  0  0  0  0  0  0  0  0  0  0  0
   30.1945   -3.3666   19.9530 C   0  0  0  0  0  0  0  0  0  0  0  0
   29.6661   -2.9778   18.5547 C   0  0  0  0  0  0  0  0  0  0  0  0
   30.7059   -2.1727   17.7694 C   0  0  0  0  0  0  0  0  0  0  0  0
   32.0133   -2.9677   17.6008 C   0  0  0  0  0  0  0  0  0  0  0  0
   32.2970   -3.8987   18.7944 C   0  0  0  0  0  0  0  0  0  0  0  0
 13 14  1  0  0  0
 14 15  2  0  0  0
 15 16  1  0  0  0
 16 17  2  0  0  0
 17  1  1  0  0  0
  1  2  1  0  0  0
  2  3  1  0  0  0
  3  4  2  0  0  0
  4  5  1  0  0  0
  5  6  1  0  0  0
  5  7  2  0  0  0
  7  8  1  0  0  0
  8  9  2  0  0  0
  9 10  1  0  0  0
 10 11  1  0  0  0
 11 21  1  0  0  0
 21 22  2  0  0  0
 22 23  1  0  0  0
 23 24  2  0  0  0
 24 27  1  0  0  0
 27 28  1  0  0  0
 28 29  1  0  0  0
 29 30  1  0  0  0
 30 31  1  0  0  0
 31 32  1  0  0  0
 32 33  1  0  0  0
 33 34  1  0  0  0
 34 35  1  0  0  0
 24 25  1  0  0  0
 25 26  2  0  0  0
 17 18  1  0  0  0
 18 19  2  0  0  0
 19 14  1  0  0  0
 11  1  1  0  0  0
 26 21  1  0  0  0
  9  3  1  0  0  0
 35 30  1  0  0  0
 13 20  1  0  0  0
  6 12  1  0  0  0
M  END
> <minimizedAffinity>
-8.87618

$$$$
CMP_1


 35 39  0  0  0  0  0  0  0  0999 V2000
   33.3300   -2.8874   18.3783 C   0  0  0  0  0  0  0  0  0  0  0  0
   32.8757   -3.1085   16.6172 S   0  0  0  0  0  0  0  0  0  0  0  0
   33.4492   -4.8033   16.3712 C   0  0  0  0  0  0  0  0  0  0  0  0
   33.6628   -5.2330   15.0538 C   0  0  0  0  0  0  0  0  0  0  0  0
   34.1282   -6.5288   14.7937 C   0  0  0  0  0  0  0  0  0  0  0  0
   34.3286   -6.9627   13.4845 O   0  0  0  0  0  0  0  0  0  0  0  0
   34.3942   -7.3959   15.8558 C   0  0  0  0  0  0  0  0  0  0  0  0
   34.1974   -6.9727   17.1715 C   0  0  0  0  0  0  0  0  0  0  0  0
   33.7280   -5.6820   17.4405 C   0  0  0  0  0  0  0  0  0  0  0  0
   33.6053   -5.2911   18.7755 O   0  0  0  0  0  0  0  0  0  0  0  0
   32.9173   -4.1203   19.2034 C   0  0  0  0  0  0  0  0  0  0  0  0
   34.1251   -6.3651   12.6908 H   0  0  0  0  0  0  0  0  0  0  0  0
   38.7851   -1.2185   18.9704 O   0  0  0  0  0  0  0  0  0  0  0  0
   37.4610   -1.6302   18.8386 C   0  0  0  0  0  0  0  0  0  0  0  0
   36.4510   -0.9315   19.5044 C   0  0  0  0  0  0  0  0  0  0  0  0
   35.1168   -1.3301   19.3805 C   0  0  0  0  0  0  0  0  0  0  0  0
   34.7724   -2.4458   18.5908 C   0  0  0  0  0  0  0  0  0  0  0  0
   35.8001   -3.1379   17.9207 C   0  0  0  0  0  0  0  0  0  0  0  0
   37.1321   -2.7346   18.0447 C   0  0  0  0  0  0  0  0  0  0  0  0
   39.5404   -1.7047   18.5002 H   0  0  0  0  0  0  0  0  0  0  0  0
   33.1330   -3.8968   20.6849 C   0  0  0  0  0  0  0  0  0  0  0  0
   32.1765   -3.2211   21.4633 C   0  0  0  0  0  0  0  0  0  0  0  0
   32.3657   -3.0663   22.8388 C   0  0  0  0  0  0  0  0  0  0  0  0
   33.5004   -3.5916   23.4659 C   0  0  0  0  0  0  0  0  0  0  0  0
   34.4482   -4.2902   22.6931 C   0  0  0  0  0  0  0  0  0  0  0  0
   34.2632   -4.4399   21.3157 C   0  0  0  0  0  0  0  0  0  0  0  0
   33.6377   -3.4033   24.8512 O   0  0  0  0  0  0  0  0  0  0  0  0
   32.5789   -3.0749   25.7510 C   0  0  0  0  0  0  0  0  0  0  0  0
   33.1300   -2.3209   26.9798 C   0  0  0  0  0  0  0  0  0  0  0  0
   33.2109   -0.8529   26.8093 N   0  0  0  0  0  0  0  0  0  0  0  0
   34.5578   -0.3099   27.1041 C   0  0  0  0  0  0  0  0  0  0  0  0
   34.5681    1.2333   27.1673 C   0  0  0  0  0  0  0  0  0  0  0  0
   33.3870    1.8312   26.3970 C   0  0  0  0  0  0  0  0  0  0  0  0
   32.0451    1.3221   26.9537 C   0  0  0  0  0  0  0  0  0  0  0  0
   32.1392   -0.1142   27.5015 C   0  0  0  0  0  0  0  0  0  0  0  0
 13 14  1  0  0  0
 14 15  2  0  0  0
 15 16  1  0  0  0
 16 17  2  0  0  0
 17  1  1  0  0  0
  1  2  1  0  0  0
  2  3  1  0  0  0
  3  4  2  0  0  0
  4  5  1  0  0  0
  5  6  1  0  0  0
  5  7  2  0  0  0
  7  8  1  0  0  0
  8  9  2  0  0  0
  9 10  1  0  0  0
 10 11  1  0  0  0
 11 21  1  0  0  0
 21 22  2  0  0  0
 22 23  1  0  0  0
 23 24  2  0  0  0
 24 27  1  0  0  0
 27 28  1  0  0  0
 28 29  1  0  0  0
 29 30  1  0  0  0
 30 31  1  0  0  0
 31 32  1  0  0  0
 32 33  1  0  0  0
 33 34  1  0  0  0
 34 35  1  0  0  0
 24 25  1  0  0  0
 25 26  2  0  0  0
 17 18  1  0  0  0
 18 19  2  0  0  0
 19 14  1  0  0  0
 11  1  1  0  0  0
 26 21  1  0  0  0
  9  3  1  0  0  0
 35 30  1  0  0  0
 13 20  1  0  0  0
  6 12  1  0  0  0
M  END
> <minimizedAffinity>
-8.70306

$$$$
CMP_1


 35 39  0  0  0  0  0  0  0  0999 V2000
   33.3223   -3.0323   18.2473 C   0  0  0  0  0  0  0  0  0  0  0  0
   32.8173   -3.3208   16.5099 S   0  0  0  0  0  0  0  0  0  0  0  0
   33.4343   -5.0045   16.2951 C   0  0  0  0  0  0  0  0  0  0  0  0
   33.6176   -5.4679   14.9846 C   0  0  0  0  0  0  0  0  0  0  0  0
   34.1138   -6.7566   14.7474 C   0  0  0  0  0  0  0  0  0  0  0  0
   34.2843   -7.2244   13.4457 O   0  0  0  0  0  0  0  0  0  0  0  0
   34.4412   -7.5824   15.8252 C   0  0  0  0  0  0  0  0  0  0  0  0
   34.2749   -7.1251   17.1337 C   0  0  0  0  0  0  0  0  0  0  0  0
   33.7751   -5.8412   17.3799 C   0  0  0  0  0  0  0  0  0  0  0  0
   33.6844   -5.4134   18.7061 O   0  0  0  0  0  0  0  0  0  0  0  0
   32.9752   -4.2511   19.1221 C   0  0  0  0  0  0  0  0  0  0  0  0
   34.0364   -6.6578   12.6419 H   0  0  0  0  0  0  0  0  0  0  0  0
   38.6954   -1.1817   19.0213 O   0  0  0  0  0  0  0  0  0  0  0  0
   37.3902   -1.6252   18.8211 C   0  0  0  0  0  0  0  0  0  0  0  0
   37.1588   -2.7615   18.0421 C   0  0  0  0  0  0  0  0  0  0  0  0
   35.8552   -3.2213   17.8336 C   0  0  0  0  0  0  0  0  0  0  0  0
   34.7566   -2.5416   18.3977 C   0  0  0  0  0  0  0  0  0  0  0  0
   35.0047   -1.4004   19.1854 C   0  0  0  0  0  0  0  0  0  0  0  0
   36.3093   -0.9458   19.3939 C   0  0  0  0  0  0  0  0  0  0  0  0
   38.8959   -0.3605   19.5812 H   0  0  0  0  0  0  0  0  0  0  0  0
   33.2325   -3.9758   20.5882 C   0  0  0  0  0  0  0  0  0  0  0  0
   32.3012   -3.2669   21.3675 C   0  0  0  0  0  0  0  0  0  0  0  0
   32.5288   -3.0640   22.7309 C   0  0  0  0  0  0  0  0  0  0  0  0
   33.6776   -3.5733   23.3454 C   0  0  0  0  0  0  0  0  0  0  0  0
   34.6003   -4.3048   22.5727 C   0  0  0  0  0  0  0  0  0  0  0  0
   34.3769   -4.5028   21.2072 C   0  0  0  0  0  0  0  0  0  0  0  0
   33.8538   -3.3362   24.7187 O   0  0  0  0  0  0  0  0  0  0  0  0
   32.8421   -3.4661   25.7178 C   0  0  0  0  0  0  0  0  0  0  0  0
   32.4988   -2.0870   26.3199 C   0  0  0  0  0  0  0  0  0  0  0  0
   31.0889   -1.9409   26.7459 N   0  0  0  0  0  0  0  0  0  0  0  0
   30.1965   -1.4972   25.6493 C   0  0  0  0  0  0  0  0  0  0  0  0
   28.7903   -1.1090   26.1570 C   0  0  0  0  0  0  0  0  0  0  0  0
   28.4805   -1.7711   27.5028 C   0  0  0  0  0  0  0  0  0  0  0  0
   29.5181   -1.3758   28.5691 C   0  0  0  0  0  0  0  0  0  0  0  0
   30.9185   -1.1412   27.9727 C   0  0  0  0  0  0  0  0  0  0  0  0
 13 14  1  0  0  0
 14 15  2  0  0  0
 15 16  1  0  0  0
 16 17  2  0  0  0
 17  1  1  0  0  0
  1  2  1  0  0  0
  2  3  1  0  0  0
  3  4  2  0  0  0
  4  5  1  0  0  0
  5  6  1  0  0  0
  5  7  2  0  0  0
  7  8  1  0  0  0
  8  9  2  0  0  0
  9 10  1  0  0  0
 10 11  1  0  0  0
 11 21  1  0  0  0
 21 22  2  0  0  0
 22 23  1  0  0  0
 23 24  2  0  0  0
 24 27  1  0  0  0
 27 28  1  0  0  0
 28 29  1  0  0  0
 29 30  1  0  0  0
 30 31  1  0  0  0
 31 32  1  0  0  0
 32 33  1  0  0  0
 33 34  1  0  0  0
 34 35  1  0  0  0
 24 25  1  0  0  0
 25 26  2  0  0  0
 17 18  1  0  0  0
 18 19  2  0  0  0
 19 14  1  0  0  0
 11  1  1  0  0  0
 26 21  1  0  0  0
  9  3  1  0  0  0
 35 30  1  0  0  0
 13 20  1  0  0  0
  6 12  1  0  0  0
M  END
> <minimizedAffinity>
-8.68068

$$$$
CMP_1


 35 39  0  0  0  0  0  0  0  0999 V2000
   33.9614   -4.8530   20.9376 C   0  0  0  0  0  0  0  0  0  0  0  0
   35.2199   -5.7940   19.9956 S   0  0  0  0  0  0  0  0  0  0  0  0
   36.4187   -4.4762   19.6994 C   0  0  0  0  0  0  0  0  0  0  0  0
   37.3481   -4.6623   18.6662 C   0  0  0  0  0  0  0  0  0  0  0  0
   38.2916   -3.6700   18.3693 C   0  0  0  0  0  0  0  0  0  0  0  0
   39.2251   -3.8582   17.3517 O   0  0  0  0  0  0  0  0  0  0  0  0
   38.2987   -2.4796   19.0998 C   0  0  0  0  0  0  0  0  0  0  0  0
   37.3687   -2.2794   20.1215 C   0  0  0  0  0  0  0  0  0  0  0  0
   36.4258   -3.2672   20.4283 C   0  0  0  0  0  0  0  0  0  0  0  0
   35.4818   -2.9909   21.4196 O   0  0  0  0  0  0  0  0  0  0  0  0
   34.6323   -3.9709   22.0068 C   0  0  0  0  0  0  0  0  0  0  0  0
   39.2601   -4.7192   16.8169 H   0  0  0  0  0  0  0  0  0  0  0  0
   30.1192   -1.9772   17.7972 O   0  0  0  0  0  0  0  0  0  0  0  0
   31.0515   -2.6861   18.5513 C   0  0  0  0  0  0  0  0  0  0  0  0
   32.3851   -2.7294   18.1376 C   0  0  0  0  0  0  0  0  0  0  0  0
   33.3337   -3.4342   18.8845 C   0  0  0  0  0  0  0  0  0  0  0  0
   32.9578   -4.1175   20.0586 C   0  0  0  0  0  0  0  0  0  0  0  0
   31.6108   -4.0611   20.4671 C   0  0  0  0  0  0  0  0  0  0  0  0
   30.6664   -3.3531   19.7196 C   0  0  0  0  0  0  0  0  0  0  0  0
   29.1443   -1.9271   18.0710 H   0  0  0  0  0  0  0  0  0  0  0  0
   33.6093   -3.3087   22.9046 C   0  0  0  0  0  0  0  0  0  0  0  0
   33.2949   -3.8459   24.1656 C   0  0  0  0  0  0  0  0  0  0  0  0
   32.3859   -3.1963   25.0043 C   0  0  0  0  0  0  0  0  0  0  0  0
   31.7849   -1.9960   24.6108 C   0  0  0  0  0  0  0  0  0  0  0  0
   32.1164   -1.4426   23.3587 C   0  0  0  0  0  0  0  0  0  0  0  0
   33.0206   -2.0951   22.5160 C   0  0  0  0  0  0  0  0  0  0  0  0
   30.8775   -1.3893   25.4949 O   0  0  0  0  0  0  0  0  0  0  0  0
   31.1518   -1.0397   26.8519 C   0  0  0  0  0  0  0  0  0  0  0  0
   30.1679    0.0454   27.3384 C   0  0  0  0  0  0  0  0  0  0  0  0
   28.8569   -0.4759   27.7858 N   0  0  0  0  0  0  0  0  0  0  0  0
   28.9218   -1.8811   28.2517 C   0  0  0  0  0  0  0  0  0  0  0  0
   27.5206   -2.4906   28.4768 C   0  0  0  0  0  0  0  0  0  0  0  0
   26.4682   -1.4014   28.7040 C   0  0  0  0  0  0  0  0  0  0  0  0
   26.4009   -0.4349   27.5076 C   0  0  0  0  0  0  0  0  0  0  0  0
   27.7663   -0.2500   26.8197 C   0  0  0  0  0  0  0  0  0  0  0  0
 13 14  1  0  0  0
 14 15  2  0  0  0
 15 16  1  0  0  0
 16 17  2  0  0  0
 17  1  1  0  0  0
  1  2  1  0  0  0
  2  3  1  0  0  0
  3  4  2  0  0  0
  4  5  1  0  0  0
  5  6  1  0  0  0
  5  7  2  0  0  0
  7  8  1  0  0  0
  8  9  2  0  0  0
  9 10  1  0  0  0
 10 11  1  0  0  0
 11 21  1  0  0  0
 21 22  2  0  0  0
 22 23  1  0  0  0
 23 24  2  0  0  0
 24 27  1  0  0  0
 27 28  1  0  0  0
 28 29  1  0  0  0
 29 30  1  0  0  0
 30 31  1  0  0  0
 31 32  1  0  0  0
 32 33  1  0  0  0
 33 34  1  0  0  0
 34 35  1  0  0  0
 24 25  1  0  0  0
 25 26  2  0  0  0
 17 18  1  0  0  0
 18 19  2  0  0  0
 19 14  1  0  0  0
 11  1  1  0  0  0
 26 21  1  0  0  0
  9  3  1  0  0  0
 35 30  1  0  0  0
 13 20  1  0  0  0
  6 12  1  0  0  0
M  END
> <minimizedAffinity>
-8.62912

$$$$
CMP_1


 35 39  0  0  0  0  0  0  0  0999 V2000
   36.7332   -2.9825   17.6254 C   0  0  0  0  0  0  0  0  0  0  0  0
   35.9368   -4.0736   18.8631 S   0  0  0  0  0  0  0  0  0  0  0  0
   34.2157   -3.5748   18.6376 C   0  0  0  0  0  0  0  0  0  0  0  0
   33.3123   -3.8709   19.6682 C   0  0  0  0  0  0  0  0  0  0  0  0
   31.9670   -3.4926   19.5669 C   0  0  0  0  0  0  0  0  0  0  0  0
   31.0642   -3.7975   20.5839 O   0  0  0  0  0  0  0  0  0  0  0  0
   31.5243   -2.8032   18.4357 C   0  0  0  0  0  0  0  0  0  0  0  0
   32.4190   -2.4920   17.4104 C   0  0  0  0  0  0  0  0  0  0  0  0
   33.7635   -2.8704   17.5008 C   0  0  0  0  0  0  0  0  0  0  0  0
   34.6270   -2.4822   16.4743 O   0  0  0  0  0  0  0  0  0  0  0  0
   35.9438   -2.9958   16.3033 C   0  0  0  0  0  0  0  0  0  0  0  0
   31.3491   -4.3151   21.4082 H   0  0  0  0  0  0  0  0  0  0  0  0
   38.0115    2.3164   19.4094 O   0  0  0  0  0  0  0  0  0  0  0  0
   37.7027    1.0249   18.9888 C   0  0  0  0  0  0  0  0  0  0  0  0
   36.4168    0.5199   19.1962 C   0  0  0  0  0  0  0  0  0  0  0  0
   36.0899   -0.7732   18.7777 C   0  0  0  0  0  0  0  0  0  0  0  0
   37.0532   -1.5883   18.1496 C   0  0  0  0  0  0  0  0  0  0  0  0
   38.3444   -1.0647   17.9420 C   0  0  0  0  0  0  0  0  0  0  0  0
   38.6663    0.2293   18.3590 C   0  0  0  0  0  0  0  0  0  0  0  0
   38.9354    2.7112   19.2734 H   0  0  0  0  0  0  0  0  0  0  0  0
   36.6676   -2.2328   15.2146 C   0  0  0  0  0  0  0  0  0  0  0  0
   36.2534   -0.9440   14.8339 C   0  0  0  0  0  0  0  0  0  0  0  0
   36.9616   -0.2317   13.8629 C   0  0  0  0  0  0  0  0  0  0  0  0
   38.1001   -0.7814   13.2643 C   0  0  0  0  0  0  0  0  0  0  0  0
   38.5316   -2.0620   13.6611 C   0  0  0  0  0  0  0  0  0  0  0  0
   37.8201   -2.7783   14.6277 C   0  0  0  0  0  0  0  0  0  0  0  0
   38.7702   -0.0195   12.2928 O   0  0  0  0  0  0  0  0  0  0  0  0
   39.8495    0.8803   12.5460 C   0  0  0  0  0  0  0  0  0  0  0  0
   39.3463    2.3395   12.5448 C   0  0  0  0  0  0  0  0  0  0  0  0
   38.5019    2.6949   13.7072 N   0  0  0  0  0  0  0  0  0  0  0  0
   37.2437    3.3760   13.3212 C   0  0  0  0  0  0  0  0  0  0  0  0
   36.4954    3.9617   14.5388 C   0  0  0  0  0  0  0  0  0  0  0  0
   36.9024    3.2564   15.8360 C   0  0  0  0  0  0  0  0  0  0  0  0
   38.4174    3.3756   16.0821 C   0  0  0  0  0  0  0  0  0  0  0  0
   39.2280    3.4093   14.7731 C   0  0  0  0  0  0  0  0  0  0  0  0
 13 14  1  0  0  0
 14 15  2  0  0  0
 15 16  1  0  0  0
 16 17  2  0  0  0
 17  1  1  0  0  0
  1  2  1  0  0  0
  2  3  1  0  0  0
  3  4  2  0  0  0
  4  5  1  0  0  0
  5  6  1  0  0  0
  5  7  2  0  0  0
  7  8  1  0  0  0
  8  9  2  0  0  0
  9 10  1  0  0  0
 10 11  1  0  0  0
 11 21  1  0  0  0
 21 22  2  0  0  0
 22 23  1  0  0  0
 23 24  2  0  0  0
 24 27  1  0  0  0
 27 28  1  0  0  0
 28 29  1  0  0  0
 29 30  1  0  0  0
 30 31  1  0  0  0
 31 32  1  0  0  0
 32 33  1  0  0  0
 33 34  1  0  0  0
 34 35  1  0  0  0
 24 25  1  0  0  0
 25 26  2  0  0  0
 17 18  1  0  0  0
 18 19  2  0  0  0
 19 14  1  0  0  0
 11  1  1  0  0  0
 26 21  1  0  0  0
  9  3  1  0  0  0
 35 30  1  0  0  0
 13 20  1  0  0  0
  6 12  1  0  0  0
M  END
> <minimizedAffinity>
-8.60591

$$$$
CMP_1


 35 39  0  0  0  0  0  0  0  0999 V2000
   37.4244   -3.6640   18.2865 C   0  0  0  0  0  0  0  0  0  0  0  0
   38.8442   -3.2491   17.2055 S   0  0  0  0  0  0  0  0  0  0  0  0
   38.6231   -1.4601   17.0953 C   0  0  0  0  0  0  0  0  0  0  0  0
   39.2549   -0.7904   16.0378 C   0  0  0  0  0  0  0  0  0  0  0  0
   39.1069    0.5940   15.8815 C   0  0  0  0  0  0  0  0  0  0  0  0
   39.7447    1.2640   14.8390 O   0  0  0  0  0  0  0  0  0  0  0  0
   38.3129    1.3118   16.7787 C   0  0  0  0  0  0  0  0  0  0  0  0
   37.6689    0.6520   17.8269 C   0  0  0  0  0  0  0  0  0  0  0  0
   37.8152   -0.7299   17.9937 C   0  0  0  0  0  0  0  0  0  0  0  0
   37.1020   -1.3478   19.0231 O   0  0  0  0  0  0  0  0  0  0  0  0
   37.3367   -2.6799   19.4676 C   0  0  0  0  0  0  0  0  0  0  0  0
   40.3447    0.7756   14.1833 H   0  0  0  0  0  0  0  0  0  0  0  0
   32.3906   -4.3965   15.6371 O   0  0  0  0  0  0  0  0  0  0  0  0
   33.6195   -4.2247   16.2702 C   0  0  0  0  0  0  0  0  0  0  0  0
   34.4544   -3.1734   15.8839 C   0  0  0  0  0  0  0  0  0  0  0  0
   35.6896   -2.9856   16.5110 C   0  0  0  0  0  0  0  0  0  0  0  0
   36.1140   -3.8575   17.5340 C   0  0  0  0  0  0  0  0  0  0  0  0
   35.2600   -4.9102   17.9172 C   0  0  0  0  0  0  0  0  0  0  0  0
   34.0249   -5.0927   17.2901 C   0  0  0  0  0  0  0  0  0  0  0  0
   31.7627   -5.1498   15.8946 H   0  0  0  0  0  0  0  0  0  0  0  0
   36.2741   -3.0963   20.4620 C   0  0  0  0  0  0  0  0  0  0  0  0
   36.5183   -4.1142   21.4009 C   0  0  0  0  0  0  0  0  0  0  0  0
   35.5461   -4.4533   22.3451 C   0  0  0  0  0  0  0  0  0  0  0  0
   34.3215   -3.7783   22.3815 C   0  0  0  0  0  0  0  0  0  0  0  0
   34.0834   -2.7417   21.4581 C   0  0  0  0  0  0  0  0  0  0  0  0
   35.0527   -2.4060   20.5087 C   0  0  0  0  0  0  0  0  0  0  0  0
   33.3817   -4.1641   23.3518 O   0  0  0  0  0  0  0  0  0  0  0  0
   32.4692   -3.2885   24.0145 C   0  0  0  0  0  0  0  0  0  0  0  0
   32.7737   -3.2368   25.5268 C   0  0  0  0  0  0  0  0  0  0  0  0
   31.7970   -2.4570   26.3196 N   0  0  0  0  0  0  0  0  0  0  0  0
   30.6840   -1.9213   25.5010 C   0  0  0  0  0  0  0  0  0  0  0  0
   29.8151   -0.9101   26.2809 C   0  0  0  0  0  0  0  0  0  0  0  0
   29.9478   -1.1103   27.7935 C   0  0  0  0  0  0  0  0  0  0  0  0
   31.4108   -0.9595   28.2482 C   0  0  0  0  0  0  0  0  0  0  0  0
   32.4137   -1.4291   27.1779 C   0  0  0  0  0  0  0  0  0  0  0  0
 13 14  1  0  0  0
 14 15  2  0  0  0
 15 16  1  0  0  0
 16 17  2  0  0  0
 17  1  1  0  0  0
  1  2  1  0  0  0
  2  3  1  0  0  0
  3  4  2  0  0  0
  4  5  1  0  0  0
  5  6  1  0  0  0
  5  7  2  0  0  0
  7  8  1  0  0  0
  8  9  2  0  0  0
  9 10  1  0  0  0
 10 11  1  0  0  0
 11 21  1  0  0  0
 21 22  2  0  0  0
 22 23  1  0  0  0
 23 24  2  0  0  0
 24 27  1  0  0  0
 27 28  1  0  0  0
 28 29  1  0  0  0
 29 30  1  0  0  0
 30 31  1  0  0  0
 31 32  1  0  0  0
 32 33  1  0  0  0
 33 34  1  0  0  0
 34 35  1  0  0  0
 24 25  1  0  0  0
 25 26  2  0  0  0
 17 18  1  0  0  0
 18 19  2  0  0  0
 19 14  1  0  0  0
 11  1  1  0  0  0
 26 21  1  0  0  0
  9  3  1  0  0  0
 35 30  1  0  0  0
 13 20  1  0  0  0
  6 12  1  0  0  0
M  END
> <minimizedAffinity>
-8.59263

$$$$
CMP_1


 35 39  0  0  0  0  0  0  0  0999 V2000
   35.5075   -2.0345   16.4597 C   0  0  0  0  0  0  0  0  0  0  0  0
   34.3375   -3.4384   16.3301 S   0  0  0  0  0  0  0  0  0  0  0  0
   34.4901   -4.1096   17.9998 C   0  0  0  0  0  0  0  0  0  0  0  0
   34.0709   -5.4308   18.2106 C   0  0  0  0  0  0  0  0  0  0  0  0
   34.1819   -6.0200   19.4770 C   0  0  0  0  0  0  0  0  0  0  0  0
   33.7536   -7.3287   19.6923 O   0  0  0  0  0  0  0  0  0  0  0  0
   34.7267   -5.2900   20.5357 C   0  0  0  0  0  0  0  0  0  0  0  0
   35.1593   -3.9783   20.3325 C   0  0  0  0  0  0  0  0  0  0  0  0
   35.0476   -3.3800   19.0722 C   0  0  0  0  0  0  0  0  0  0  0  0
   35.5497   -2.0871   18.9106 O   0  0  0  0  0  0  0  0  0  0  0  0
   35.2891   -1.2667   17.7765 C   0  0  0  0  0  0  0  0  0  0  0  0
   33.3344   -7.8783   18.9501 H   0  0  0  0  0  0  0  0  0  0  0  0
   41.0188   -3.2655   15.4569 O   0  0  0  0  0  0  0  0  0  0  0  0
   39.6766   -2.9775   15.6934 C   0  0  0  0  0  0  0  0  0  0  0  0
   38.9933   -3.6540   16.7069 C   0  0  0  0  0  0  0  0  0  0  0  0
   37.6468   -3.3749   16.9588 C   0  0  0  0  0  0  0  0  0  0  0  0
   36.9577   -2.4153   16.1899 C   0  0  0  0  0  0  0  0  0  0  0  0
   37.6602   -1.7369   15.1747 C   0  0  0  0  0  0  0  0  0  0  0  0
   39.0067   -2.0166   14.9280 C   0  0  0  0  0  0  0  0  0  0  0  0
   41.5419   -2.7920   14.7289 H   0  0  0  0  0  0  0  0  0  0  0  0
   36.1298   -0.0092   17.8341 C   0  0  0  0  0  0  0  0  0  0  0  0
   35.8721    1.0755   16.9771 C   0  0  0  0  0  0  0  0  0  0  0  0
   36.6239    2.2489   17.0758 C   0  0  0  0  0  0  0  0  0  0  0  0
   37.6342    2.3696   18.0358 C   0  0  0  0  0  0  0  0  0  0  0  0
   37.8783    1.2941   18.9118 C   0  0  0  0  0  0  0  0  0  0  0  0
   37.1312    0.1172   18.8096 C   0  0  0  0  0  0  0  0  0  0  0  0
   38.3583    3.5722   18.0867 O   0  0  0  0  0  0  0  0  0  0  0  0
   38.2839    4.6247   17.1247 C   0  0  0  0  0  0  0  0  0  0  0  0
   38.4667    5.9955   17.8103 C   0  0  0  0  0  0  0  0  0  0  0  0
   39.7727    6.1716   18.4839 N   0  0  0  0  0  0  0  0  0  0  0  0
   39.6586    6.8428   19.8001 C   0  0  0  0  0  0  0  0  0  0  0  0
   41.0344    7.2445   20.3759 C   0  0  0  0  0  0  0  0  0  0  0  0
   42.1609    6.4035   19.7679 C   0  0  0  0  0  0  0  0  0  0  0  0
   42.2025    6.5536   18.2363 C   0  0  0  0  0  0  0  0  0  0  0  0
   40.8065    6.7798   17.6265 C   0  0  0  0  0  0  0  0  0  0  0  0
 13 14  1  0  0  0
 14 15  2  0  0  0
 15 16  1  0  0  0
 16 17  2  0  0  0
 17  1  1  0  0  0
  1  2  1  0  0  0
  2  3  1  0  0  0
  3  4  2  0  0  0
  4  5  1  0  0  0
  5  6  1  0  0  0
  5  7  2  0  0  0
  7  8  1  0  0  0
  8  9  2  0  0  0
  9 10  1  0  0  0
 10 11  1  0  0  0
 11 21  1  0  0  0
 21 22  2  0  0  0
 22 23  1  0  0  0
 23 24  2  0  0  0
 24 27  1  0  0  0
 27 28  1  0  0  0
 28 29  1  0  0  0
 29 30  1  0  0  0
 30 31  1  0  0  0
 31 32  1  0  0  0
 32 33  1  0  0  0
 33 34  1  0  0  0
 34 35  1  0  0  0
 24 25  1  0  0  0
 25 26  2  0  0  0
 17 18  1  0  0  0
 18 19  2  0  0  0
 19 14  1  0  0  0
 11  1  1  0  0  0
 26 21  1  0  0  0
  9  3  1  0  0  0
 35 30  1  0  0  0
 13 20  1  0  0  0
  6 12  1  0  0  0
M  END
> <minimizedAffinity>
-8.44871

$$$$
CMP_1


 35 39  0  0  0  0  0  0  0  0999 V2000
   36.0469   -3.2372   17.8740 C   0  0  0  0  0  0  0  0  0  0  0  0
   36.9731   -2.6011   16.4278 S   0  0  0  0  0  0  0  0  0  0  0  0
   36.2300   -0.9610   16.2926 C   0  0  0  0  0  0  0  0  0  0  0  0
   36.3642   -0.2857   15.0717 C   0  0  0  0  0  0  0  0  0  0  0  0
   35.7974    0.9794   14.8908 C   0  0  0  0  0  0  0  0  0  0  0  0
   35.9509    1.6341   13.6709 O   0  0  0  0  0  0  0  0  0  0  0  0
   35.0802    1.5745   15.9347 C   0  0  0  0  0  0  0  0  0  0  0  0
   34.9263    0.9028   17.1490 C   0  0  0  0  0  0  0  0  0  0  0  0
   35.4942   -0.3624   17.3383 C   0  0  0  0  0  0  0  0  0  0  0  0
   35.2593   -1.0155   18.5504 O   0  0  0  0  0  0  0  0  0  0  0  0
   35.9707   -2.1703   18.9820 C   0  0  0  0  0  0  0  0  0  0  0  0
   35.5514    2.5510   13.5080 H   0  0  0  0  0  0  0  0  0  0  0  0
   30.9744   -5.6582   16.7312 O   0  0  0  0  0  0  0  0  0  0  0  0
   32.2109   -5.0731   16.9944 C   0  0  0  0  0  0  0  0  0  0  0  0
   32.4387   -3.7450   16.6272 C   0  0  0  0  0  0  0  0  0  0  0  0
   33.6727   -3.1418   16.8873 C   0  0  0  0  0  0  0  0  0  0  0  0
   34.7062   -3.8655   17.5147 C   0  0  0  0  0  0  0  0  0  0  0  0
   34.4616   -5.2028   17.8836 C   0  0  0  0  0  0  0  0  0  0  0  0
   33.2260   -5.8013   17.6243 C   0  0  0  0  0  0  0  0  0  0  0  0
   30.7792   -6.6196   16.9849 H   0  0  0  0  0  0  0  0  0  0  0  0
   35.3504   -2.7247   20.2464 C   0  0  0  0  0  0  0  0  0  0  0  0
   34.0285   -2.3909   20.5811 C   0  0  0  0  0  0  0  0  0  0  0  0
   33.4646   -2.8450   21.7764 C   0  0  0  0  0  0  0  0  0  0  0  0
   34.2113   -3.6277   22.6635 C   0  0  0  0  0  0  0  0  0  0  0  0
   35.5403   -3.9563   22.3373 C   0  0  0  0  0  0  0  0  0  0  0  0
   36.1045   -3.5048   21.1414 C   0  0  0  0  0  0  0  0  0  0  0  0
   33.6018   -4.0513   23.8533 O   0  0  0  0  0  0  0  0  0  0  0  0
   32.4791   -3.4117   24.4560 C   0  0  0  0  0  0  0  0  0  0  0  0
   32.7310   -3.2342   25.9531 C   0  0  0  0  0  0  0  0  0  0  0  0
   33.2327   -1.8733   26.2407 N   0  0  0  0  0  0  0  0  0  0  0  0
   32.5959   -0.8789   25.3435 C   0  0  0  0  0  0  0  0  0  0  0  0
   32.7974    0.5506   25.8555 C   0  0  0  0  0  0  0  0  0  0  0  0
   32.1338    0.7454   27.2297 C   0  0  0  0  0  0  0  0  0  0  0  0
   31.9981   -0.5701   28.0142 C   0  0  0  0  0  0  0  0  0  0  0  0
   33.1496   -1.5321   27.6884 C   0  0  0  0  0  0  0  0  0  0  0  0
 13 14  1  0  0  0
 14 15  2  0  0  0
 15 16  1  0  0  0
 16 17  2  0  0  0
 17  1  1  0  0  0
  1  2  1  0  0  0
  2  3  1  0  0  0
  3  4  2  0  0  0
  4  5  1  0  0  0
  5  6  1  0  0  0
  5  7  2  0  0  0
  7  8  1  0  0  0
  8  9  2  0  0  0
  9 10  1  0  0  0
 10 11  1  0  0  0
 11 21  1  0  0  0
 21 22  2  0  0  0
 22 23  1  0  0  0
 23 24  2  0  0  0
 24 27  1  0  0  0
 27 28  1  0  0  0
 28 29  1  0  0  0
 29 30  1  0  0  0
 30 31  1  0  0  0
 31 32  1  0  0  0
 32 33  1  0  0  0
 33 34  1  0  0  0
 34 35  1  0  0  0
 24 25  1  0  0  0
 25 26  2  0  0  0
 17 18  1  0  0  0
 18 19  2  0  0  0
 19 14  1  0  0  0
 11  1  1  0  0  0
 26 21  1  0  0  0
  9  3  1  0  0  0
 35 30  1  0  0  0
 13 20  1  0  0  0
  6 12  1  0  0  0
M  END
> <minimizedAffinity>
-9.32119

$$$$
CMP_1


 35 39  0  0  0  0  0  0  0  0999 V2000
   37.6976   -1.1241   17.1078 C   0  0  0  0  0  0  0  0  0  0  0  0
   38.4361    0.1372   16.0044 S   0  0  0  0  0  0  0  0  0  0  0  0
   36.9955    1.1961   15.7517 C   0  0  0  0  0  0  0  0  0  0  0  0
   37.0109    2.0616   14.6493 C   0  0  0  0  0  0  0  0  0  0  0  0
   35.9211    2.8956   14.3825 C   0  0  0  0  0  0  0  0  0  0  0  0
   35.9630    3.7528   13.2853 O   0  0  0  0  0  0  0  0  0  0  0  0
   34.7989    2.8601   15.2177 C   0  0  0  0  0  0  0  0  0  0  0  0
   34.7667    1.9892   16.3087 C   0  0  0  0  0  0  0  0  0  0  0  0
   35.8557    1.1541   16.5837 C   0  0  0  0  0  0  0  0  0  0  0  0
   35.7473    0.2598   17.6511 O   0  0  0  0  0  0  0  0  0  0  0  0
   36.8468   -0.4554   18.2037 C   0  0  0  0  0  0  0  0  0  0  0  0
   35.1892    4.3687   13.0646 H   0  0  0  0  0  0  0  0  0  0  0  0
   35.0240   -5.4745   14.4956 O   0  0  0  0  0  0  0  0  0  0  0  0
   35.6802   -4.4142   15.1168 C   0  0  0  0  0  0  0  0  0  0  0  0
   35.1560   -3.1235   15.0163 C   0  0  0  0  0  0  0  0  0  0  0  0
   35.8003   -2.0492   15.6368 C   0  0  0  0  0  0  0  0  0  0  0  0
   36.9903   -2.2501   16.3641 C   0  0  0  0  0  0  0  0  0  0  0  0
   37.5056   -3.5576   16.4610 C   0  0  0  0  0  0  0  0  0  0  0  0
   36.8574   -4.6292   15.8417 C   0  0  0  0  0  0  0  0  0  0  0  0
   35.3798   -6.4217   14.5498 H   0  0  0  0  0  0  0  0  0  0  0  0
   36.3571   -1.4640   19.2206 C   0  0  0  0  0  0  0  0  0  0  0  0
   34.9803   -1.6101   19.4531 C   0  0  0  0  0  0  0  0  0  0  0  0
   34.5175   -2.4923   20.4331 C   0  0  0  0  0  0  0  0  0  0  0  0
   35.4178   -3.2335   21.2059 C   0  0  0  0  0  0  0  0  0  0  0  0
   36.7993   -3.0828   20.9837 C   0  0  0  0  0  0  0  0  0  0  0  0
   37.2632   -2.2027   20.0025 C   0  0  0  0  0  0  0  0  0  0  0  0
   34.9027   -4.0989   22.1818 O   0  0  0  0  0  0  0  0  0  0  0  0
   33.5615   -4.0630   22.6642 C   0  0  0  0  0  0  0  0  0  0  0  0
   33.5502   -3.5888   24.1171 C   0  0  0  0  0  0  0  0  0  0  0  0
   32.1993   -3.1311   24.5070 N   0  0  0  0  0  0  0  0  0  0  0  0
   32.1065   -2.9623   25.9774 C   0  0  0  0  0  0  0  0  0  0  0  0
   30.8744   -2.1426   26.3726 C   0  0  0  0  0  0  0  0  0  0  0  0
   30.9474   -0.7189   25.7943 C   0  0  0  0  0  0  0  0  0  0  0  0
   31.8192   -0.6365   24.5304 C   0  0  0  0  0  0  0  0  0  0  0  0
   31.7554   -1.9428   23.7258 C   0  0  0  0  0  0  0  0  0  0  0  0
 13 14  1  0  0  0
 14 15  2  0  0  0
 15 16  1  0  0  0
 16 17  2  0  0  0
 17  1  1  0  0  0
  1  2  1  0  0  0
  2  3  1  0  0  0
  3  4  2  0  0  0
  4  5  1  0  0  0
  5  6  1  0  0  0
  5  7  2  0  0  0
  7  8  1  0  0  0
  8  9  2  0  0  0
  9 10  1  0  0  0
 10 11  1  0  0  0
 11 21  1  0  0  0
 21 22  2  0  0  0
 22 23  1  0  0  0
 23 24  2  0  0  0
 24 27  1  0  0  0
 27 28  1  0  0  0
 28 29  1  0  0  0
 29 30  1  0  0  0
 30 31  1  0  0  0
 31 32  1  0  0  0
 32 33  1  0  0  0
 33 34  1  0  0  0
 34 35  1  0  0  0
 24 25  1  0  0  0
 25 26  2  0  0  0
 17 18  1  0  0  0
 18 19  2  0  0  0
 19 14  1  0  0  0
 11  1  1  0  0  0
 26 21  1  0  0  0
  9  3  1  0  0  0
 35 30  1  0  0  0
 13 20  1  0  0  0
  6 12  1  0  0  0
M  END
> <minimizedAffinity>
-9.24137

$$$$
CMP_1


 35 39  0  0  0  0  0  0  0  0999 V2000
   36.5154   -3.1635   17.7055 C   0  0  0  0  0  0  0  0  0  0  0  0
   35.6361   -4.1863   18.9442 S   0  0  0  0  0  0  0  0  0  0  0  0
   33.9448   -3.6262   18.6504 C   0  0  0  0  0  0  0  0  0  0  0  0
   32.9987   -3.8606   19.6576 C   0  0  0  0  0  0  0  0  0  0  0  0
   31.6752   -3.4367   19.5051 C   0  0  0  0  0  0  0  0  0  0  0  0
   30.7513   -3.6880   20.5168 O   0  0  0  0  0  0  0  0  0  0  0  0
   31.2920   -2.7628   18.3401 C   0  0  0  0  0  0  0  0  0  0  0  0
   32.2308   -2.5094   17.3381 C   0  0  0  0  0  0  0  0  0  0  0  0
   33.5566   -2.9341   17.4826 C   0  0  0  0  0  0  0  0  0  0  0  0
   34.4681   -2.6023   16.4777 O   0  0  0  0  0  0  0  0  0  0  0  0
   35.7656   -3.1757   16.3603 C   0  0  0  0  0  0  0  0  0  0  0  0
   29.7852   -3.3929   20.4370 H   0  0  0  0  0  0  0  0  0  0  0  0
   37.9821    2.1153   19.4026 O   0  0  0  0  0  0  0  0  0  0  0  0
   37.6264    0.8285   19.0050 C   0  0  0  0  0  0  0  0  0  0  0  0
   36.2929    0.4225   19.0921 C   0  0  0  0  0  0  0  0  0  0  0  0
   35.9188   -0.8643   18.6938 C   0  0  0  0  0  0  0  0  0  0  0  0
   36.8805   -1.7721   18.2077 C   0  0  0  0  0  0  0  0  0  0  0  0
   38.2211   -1.3482   18.1211 C   0  0  0  0  0  0  0  0  0  0  0  0
   38.5906   -0.0605   18.5176 C   0  0  0  0  0  0  0  0  0  0  0  0
   38.9410    2.4389   19.3519 H   0  0  0  0  0  0  0  0  0  0  0  0
   36.5536   -2.4700   15.2777 C   0  0  0  0  0  0  0  0  0  0  0  0
   36.1818   -1.1786   14.8716 C   0  0  0  0  0  0  0  0  0  0  0  0
   36.8616   -0.5407   13.8305 C   0  0  0  0  0  0  0  0  0  0  0  0
   37.9135   -1.1829   13.1686 C   0  0  0  0  0  0  0  0  0  0  0  0
   38.2831   -2.4816   13.5651 C   0  0  0  0  0  0  0  0  0  0  0  0
   37.6058   -3.1196   14.6075 C   0  0  0  0  0  0  0  0  0  0  0  0
   38.5580   -0.5028   12.1251 O   0  0  0  0  0  0  0  0  0  0  0  0
   38.2356    0.8212   11.7055 C   0  0  0  0  0  0  0  0  0  0  0  0
   39.3621    1.7749   12.1023 C   0  0  0  0  0  0  0  0  0  0  0  0
   38.8805    2.7746   13.0796 N   0  0  0  0  0  0  0  0  0  0  0  0
   37.3988    2.7784   13.1393 C   0  0  0  0  0  0  0  0  0  0  0  0
   36.8881    3.5091   14.3849 C   0  0  0  0  0  0  0  0  0  0  0  0
   37.3544    2.8045   15.6706 C   0  0  0  0  0  0  0  0  0  0  0  0
   38.6436    1.9915   15.4668 C   0  0  0  0  0  0  0  0  0  0  0  0
   39.5456    2.6380   14.4056 C   0  0  0  0  0  0  0  0  0  0  0  0
 13 14  1  0  0  0
 14 15  2  0  0  0
 15 16  1  0  0  0
 16 17  2  0  0  0
 17  1  1  0  0  0
  1  2  1  0  0  0
  2  3  1  0  0  0
  3  4  2  0  0  0
  4  5  1  0  0  0
  5  6  1  0  0  0
  5  7  2  0  0  0
  7  8  1  0  0  0
  8  9  2  0  0  0
  9 10  1  0  0  0
 10 11  1  0  0  0
 11 21  1  0  0  0
 21 22  2  0  0  0
 22 23  1  0  0  0
 23 24  2  0  0  0
 24 27  1  0  0  0
 27 28  1  0  0  0
 28 29  1  0  0  0
 29 30  1  0  0  0
 30 31  1  0  0  0
 31 32  1  0  0  0
 32 33  1  0  0  0
 33 34  1  0  0  0
 34 35  1  0  0  0
 24 25  1  0  0  0
 25 26  2  0  0  0
 17 18  1  0  0  0
 18 19  2  0  0  0
 19 14  1  0  0  0
 11  1  1  0  0  0
 26 21  1  0  0  0
  9  3  1  0  0  0
 35 30  1  0  0  0
 13 20  1  0  0  0
  6 12  1  0  0  0
M  END
> <minimizedAffinity>
-8.88925

$$$$
CMP_1


 35 39  0  0  0  0  0  0  0  0999 V2000
   33.2851   -2.9585   18.3788 C   0  0  0  0  0  0  0  0  0  0  0  0
   32.8380   -3.1855   16.6174 S   0  0  0  0  0  0  0  0  0  0  0  0
   33.4257   -4.8754   16.3736 C   0  0  0  0  0  0  0  0  0  0  0  0
   33.6429   -5.3040   15.0569 C   0  0  0  0  0  0  0  0  0  0  0  0
   34.1157   -6.5934   14.7957 C   0  0  0  0  0  0  0  0  0  0  0  0
   34.3164   -6.9991   13.4783 O   0  0  0  0  0  0  0  0  0  0  0  0
   34.3847   -7.4628   15.8588 C   0  0  0  0  0  0  0  0  0  0  0  0
   34.1877   -7.0397   17.1748 C   0  0  0  0  0  0  0  0  0  0  0  0
   33.7112   -5.7514   17.4434 C   0  0  0  0  0  0  0  0  0  0  0  0
   33.5893   -5.3588   18.7782 O   0  0  0  0  0  0  0  0  0  0  0  0
   32.8869   -4.1963   19.2040 C   0  0  0  0  0  0  0  0  0  0  0  0
   34.6590   -7.9265   13.2561 H   0  0  0  0  0  0  0  0  0  0  0  0
   38.7142   -1.2035   18.9639 O   0  0  0  0  0  0  0  0  0  0  0  0
   37.3969   -1.6377   18.8348 C   0  0  0  0  0  0  0  0  0  0  0  0
   36.3811   -0.9784   19.5304 C   0  0  0  0  0  0  0  0  0  0  0  0
   35.0535   -1.3993   19.4090 C   0  0  0  0  0  0  0  0  0  0  0  0
   34.7219   -2.4981   18.5917 C   0  0  0  0  0  0  0  0  0  0  0  0
   35.7557   -3.1514   17.8924 C   0  0  0  0  0  0  0  0  0  0  0  0
   37.0809   -2.7260   18.0143 C   0  0  0  0  0  0  0  0  0  0  0  0
   39.4730   -1.6615   18.4728 H   0  0  0  0  0  0  0  0  0  0  0  0
   33.0999   -3.9695   20.6852 C   0  0  0  0  0  0  0  0  0  0  0  0
   32.1834   -3.1936   21.4125 C   0  0  0  0  0  0  0  0  0  0  0  0
   32.4011   -2.9245   22.7664 C   0  0  0  0  0  0  0  0  0  0  0  0
   33.5408   -3.4123   23.4147 C   0  0  0  0  0  0  0  0  0  0  0  0
   34.4678   -4.1818   22.6874 C   0  0  0  0  0  0  0  0  0  0  0  0
   34.2500   -4.4536   21.3342 C   0  0  0  0  0  0  0  0  0  0  0  0
   33.7168   -3.1074   24.7722 O   0  0  0  0  0  0  0  0  0  0  0  0
   32.7604   -3.3874   25.7919 C   0  0  0  0  0  0  0  0  0  0  0  0
   32.2735   -2.0787   26.4135 C   0  0  0  0  0  0  0  0  0  0  0  0
   33.2981   -1.0216   26.2751 N   0  0  0  0  0  0  0  0  0  0  0  0
   32.7074    0.2090   25.6956 C   0  0  0  0  0  0  0  0  0  0  0  0
   33.6261    1.4191   25.8898 C   0  0  0  0  0  0  0  0  0  0  0  0
   33.8352    1.7218   27.3836 C   0  0  0  0  0  0  0  0  0  0  0  0
   33.6406    0.4822   28.2724 C   0  0  0  0  0  0  0  0  0  0  0  0
   34.0581   -0.7994   27.5370 C   0  0  0  0  0  0  0  0  0  0  0  0
 13 14  1  0  0  0
 14 15  2  0  0  0
 15 16  1  0  0  0
 16 17  2  0  0  0
 17  1  1  0  0  0
  1  2  1  0  0  0
  2  3  1  0  0  0
  3  4  2  0  0  0
  4  5  1  0  0  0
  5  6  1  0  0  0
  5  7  2  0  0  0
  7  8  1  0  0  0
  8  9  2  0  0  0
  9 10  1  0  0  0
 10 11  1  0  0  0
 11 21  1  0  0  0
 21 22  2  0  0  0
 22 23  1  0  0  0
 23 24  2  0  0  0
 24 27  1  0  0  0
 27 28  1  0  0  0
 28 29  1  0  0  0
 29 30  1  0  0  0
 30 31  1  0  0  0
 31 32  1  0  0  0
 32 33  1  0  0  0
 33 34  1  0  0  0
 34 35  1  0  0  0
 24 25  1  0  0  0
 25 26  2  0  0  0
 17 18  1  0  0  0
 18 19  2  0  0  0
 19 14  1  0  0  0
 11  1  1  0  0  0
 26 21  1  0  0  0
  9  3  1  0  0  0
 35 30  1  0  0  0
 13 20  1  0  0  0
  6 12  1  0  0  0
M  END
> <minimizedAffinity>
-8.66149

$$$$
CMP_1


 35 39  0  0  0  0  0  0  0  0999 V2000
   38.0816    0.4125   16.9716 C   0  0  0  0  0  0  0  0  0  0  0  0
   38.5740    1.9630   16.1307 S   0  0  0  0  0  0  0  0  0  0  0  0
   36.9403    2.6212   15.7331 C   0  0  0  0  0  0  0  0  0  0  0  0
   36.8601    3.6003   14.7333 C   0  0  0  0  0  0  0  0  0  0  0  0
   35.6253    4.1399   14.3613 C   0  0  0  0  0  0  0  0  0  0  0  0
   35.5719    5.1175   13.3704 O   0  0  0  0  0  0  0  0  0  0  0  0
   34.4556    3.6920   14.9854 C   0  0  0  0  0  0  0  0  0  0  0  0
   34.5230    2.7048   15.9706 C   0  0  0  0  0  0  0  0  0  0  0  0
   35.7563    2.1628   16.3505 C   0  0  0  0  0  0  0  0  0  0  0  0
   35.7613    1.1361   17.2974 O   0  0  0  0  0  0  0  0  0  0  0  0
   36.9317    0.6737   17.9623 C   0  0  0  0  0  0  0  0  0  0  0  0
   34.6926    5.5275   13.0778 H   0  0  0  0  0  0  0  0  0  0  0  0
   37.1749   -4.1018   13.5517 O   0  0  0  0  0  0  0  0  0  0  0  0
   37.4011   -2.9977   14.3704 C   0  0  0  0  0  0  0  0  0  0  0  0
   36.4809   -1.9471   14.3829 C   0  0  0  0  0  0  0  0  0  0  0  0
   36.6912   -0.8335   15.2015 C   0  0  0  0  0  0  0  0  0  0  0  0
   37.8364   -0.7503   16.0182 C   0  0  0  0  0  0  0  0  0  0  0  0
   38.7541   -1.8189   15.9991 C   0  0  0  0  0  0  0  0  0  0  0  0
   38.5391   -2.9313   15.1816 C   0  0  0  0  0  0  0  0  0  0  0  0
   37.8241   -4.8792   13.5202 H   0  0  0  0  0  0  0  0  0  0  0  0
   36.6149   -0.5574   18.7839 C   0  0  0  0  0  0  0  0  0  0  0  0
   35.2838   -0.8491   19.1214 C   0  0  0  0  0  0  0  0  0  0  0  0
   34.9832   -1.9473   19.9315 C   0  0  0  0  0  0  0  0  0  0  0  0
   36.0033   -2.7651   20.4292 C   0  0  0  0  0  0  0  0  0  0  0  0
   37.3401   -2.4707   20.1023 C   0  0  0  0  0  0  0  0  0  0  0  0
   37.6418   -1.3742   19.2904 C   0  0  0  0  0  0  0  0  0  0  0  0
   35.6495   -3.8499   21.2444 O   0  0  0  0  0  0  0  0  0  0  0  0
   34.5688   -4.7406   20.9768 C   0  0  0  0  0  0  0  0  0  0  0  0
   35.0702   -5.9227   20.1477 C   0  0  0  0  0  0  0  0  0  0  0  0
   34.5241   -5.8669   18.7747 N   0  0  0  0  0  0  0  0  0  0  0  0
   33.4127   -4.8885   18.6915 C   0  0  0  0  0  0  0  0  0  0  0  0
   33.0856   -4.5314   17.2384 C   0  0  0  0  0  0  0  0  0  0  0  0
   34.2853   -3.8575   16.5501 C   0  0  0  0  0  0  0  0  0  0  0  0
   35.6293   -4.2445   17.1890 C   0  0  0  0  0  0  0  0  0  0  0  0
   35.5868   -5.6737   17.7488 C   0  0  0  0  0  0  0  0  0  0  0  0
 13 14  1  0  0  0
 14 15  2  0  0  0
 15 16  1  0  0  0
 16 17  2  0  0  0
 17  1  1  0  0  0
  1  2  1  0  0  0
  2  3  1  0  0  0
  3  4  2  0  0  0
  4  5  1  0  0  0
  5  6  1  0  0  0
  5  7  2  0  0  0
  7  8  1  0  0  0
  8  9  2  0  0  0
  9 10  1  0  0  0
 10 11  1  0  0  0
 11 21  1  0  0  0
 21 22  2  0  0  0
 22 23  1  0  0  0
 23 24  2  0  0  0
 24 27  1  0  0  0
 27 28  1  0  0  0
 28 29  1  0  0  0
 29 30  1  0  0  0
 30 31  1  0  0  0
 31 32  1  0  0  0
 32 33  1  0  0  0
 33 34  1  0  0  0
 34 35  1  0  0  0
 24 25  1  0  0  0
 25 26  2  0  0  0
 17 18  1  0  0  0
 18 19  2  0  0  0
 19 14  1  0  0  0
 11  1  1  0  0  0
 26 21  1  0  0  0
  9  3  1  0  0  0
 35 30  1  0  0  0
 13 20  1  0  0  0
  6 12  1  0  0  0
M  END
> <minimizedAffinity>
-8.66091

$$$$
CMP_1


 35 39  0  0  0  0  0  0  0  0999 V2000
   37.3062   -3.8359   18.4581 C   0  0  0  0  0  0  0  0  0  0  0  0
   38.7932   -3.5324   17.4332 S   0  0  0  0  0  0  0  0  0  0  0  0
   38.6825   -1.7378   17.2670 C   0  0  0  0  0  0  0  0  0  0  0  0
   39.4010   -1.1365   16.2245 C   0  0  0  0  0  0  0  0  0  0  0  0
   39.3457    0.2462   16.0255 C   0  0  0  0  0  0  0  0  0  0  0  0
   40.0748    0.8217   14.9874 O   0  0  0  0  0  0  0  0  0  0  0  0
   38.5578    1.0379   16.8685 C   0  0  0  0  0  0  0  0  0  0  0  0
   37.8248    0.4465   17.8993 C   0  0  0  0  0  0  0  0  0  0  0  0
   37.8784   -0.9366   18.1065 C   0  0  0  0  0  0  0  0  0  0  0  0
   37.0794   -1.4836   19.1131 O   0  0  0  0  0  0  0  0  0  0  0  0
   37.2191   -2.8119   19.6051 C   0  0  0  0  0  0  0  0  0  0  0  0
   40.0550    1.8203   14.8165 H   0  0  0  0  0  0  0  0  0  0  0  0
   32.3664   -4.3993   15.5983 O   0  0  0  0  0  0  0  0  0  0  0  0
   33.5736   -4.2687   16.2810 C   0  0  0  0  0  0  0  0  0  0  0  0
   34.4018   -3.1757   16.0167 C   0  0  0  0  0  0  0  0  0  0  0  0
   35.6148   -3.0280   16.6957 C   0  0  0  0  0  0  0  0  0  0  0  0
   36.0236   -3.9820   17.6487 C   0  0  0  0  0  0  0  0  0  0  0  0
   35.1768   -5.0773   17.9086 C   0  0  0  0  0  0  0  0  0  0  0  0
   33.9639   -5.2200   17.2299 C   0  0  0  0  0  0  0  0  0  0  0  0
   31.7445   -5.1813   15.7675 H   0  0  0  0  0  0  0  0  0  0  0  0
   36.0891   -3.1385   20.5578 C   0  0  0  0  0  0  0  0  0  0  0  0
   34.8699   -2.4495   20.4586 C   0  0  0  0  0  0  0  0  0  0  0  0
   33.8407   -2.6969   21.3709 C   0  0  0  0  0  0  0  0  0  0  0  0
   34.0130   -3.6244   22.4040 C   0  0  0  0  0  0  0  0  0  0  0  0
   35.2370   -4.3100   22.5139 C   0  0  0  0  0  0  0  0  0  0  0  0
   36.2661   -4.0652   21.6009 C   0  0  0  0  0  0  0  0  0  0  0  0
   32.9523   -3.8303   23.2980 O   0  0  0  0  0  0  0  0  0  0  0  0
   32.8798   -3.2677   24.6061 C   0  0  0  0  0  0  0  0  0  0  0  0
   32.1551   -1.9232   24.5480 C   0  0  0  0  0  0  0  0  0  0  0  0
   32.1002   -1.3009   25.8882 N   0  0  0  0  0  0  0  0  0  0  0  0
   32.9491   -2.0470   26.8483 C   0  0  0  0  0  0  0  0  0  0  0  0
   33.2142   -1.2306   28.1169 C   0  0  0  0  0  0  0  0  0  0  0  0
   33.9872    0.0598   27.7938 C   0  0  0  0  0  0  0  0  0  0  0  0
   33.7717    0.5332   26.3468 C   0  0  0  0  0  0  0  0  0  0  0  0
   32.3682    0.1639   25.8450 C   0  0  0  0  0  0  0  0  0  0  0  0
 13 14  1  0  0  0
 14 15  2  0  0  0
 15 16  1  0  0  0
 16 17  2  0  0  0
 17  1  1  0  0  0
  1  2  1  0  0  0
  2  3  1  0  0  0
  3  4  2  0  0  0
  4  5  1  0  0  0
  5  6  1  0  0  0
  5  7  2  0  0  0
  7  8  1  0  0  0
  8  9  2  0  0  0
  9 10  1  0  0  0
 10 11  1  0  0  0
 11 21  1  0  0  0
 21 22  2  0  0  0
 22 23  1  0  0  0
 23 24  2  0  0  0
 24 27  1  0  0  0
 27 28  1  0  0  0
 28 29  1  0  0  0
 29 30  1  0  0  0
 30 31  1  0  0  0
 31 32  1  0  0  0
 32 33  1  0  0  0
 33 34  1  0  0  0
 34 35  1  0  0  0
 24 25  1  0  0  0
 25 26  2  0  0  0
 17 18  1  0  0  0
 18 19  2  0  0  0
 19 14  1  0  0  0
 11  1  1  0  0  0
 26 21  1  0  0  0
  9  3  1  0  0  0
 35 30  1  0  0  0
 13 20  1  0  0  0
  6 12  1  0  0  0
M  END
> <minimizedAffinity>
-8.64026

$$$$
CMP_1


 35 39  0  0  0  0  0  0  0  0999 V2000
   37.4162    1.0678   17.6526 C   0  0  0  0  0  0  0  0  0  0  0  0
   38.1143    2.7467   17.4343 S   0  0  0  0  0  0  0  0  0  0  0  0
   36.9252    3.4151   16.2512 C   0  0  0  0  0  0  0  0  0  0  0  0
   37.3098    4.5402   15.5089 C   0  0  0  0  0  0  0  0  0  0  0  0
   36.4464    5.0984   14.5616 C   0  0  0  0  0  0  0  0  0  0  0  0
   36.8481    6.2213   13.8418 O   0  0  0  0  0  0  0  0  0  0  0  0
   35.1893    4.5235   14.3441 C   0  0  0  0  0  0  0  0  0  0  0  0
   34.8034    3.3925   15.0662 C   0  0  0  0  0  0  0  0  0  0  0  0
   35.6613    2.8306   16.0187 C   0  0  0  0  0  0  0  0  0  0  0  0
   35.2505    1.6650   16.6694 O   0  0  0  0  0  0  0  0  0  0  0  0
   35.8874    1.1338   17.8262 C   0  0  0  0  0  0  0  0  0  0  0  0
   36.2461    6.6487   13.1478 H   0  0  0  0  0  0  0  0  0  0  0  0
   39.1065   -2.8579   13.8278 O   0  0  0  0  0  0  0  0  0  0  0  0
   38.7072   -1.8951   14.7520 C   0  0  0  0  0  0  0  0  0  0  0  0
   37.8862   -0.8424   14.3417 C   0  0  0  0  0  0  0  0  0  0  0  0
   37.4737    0.1300   15.2575 C   0  0  0  0  0  0  0  0  0  0  0  0
   37.8860    0.0678   16.6034 C   0  0  0  0  0  0  0  0  0  0  0  0
   38.7104   -1.0016   17.0047 C   0  0  0  0  0  0  0  0  0  0  0  0
   39.1184   -1.9730   16.0871 C   0  0  0  0  0  0  0  0  0  0  0  0
   39.7022   -3.6329   14.0947 H   0  0  0  0  0  0  0  0  0  0  0  0
   35.3071   -0.2221   18.1668 C   0  0  0  0  0  0  0  0  0  0  0  0
   34.3336   -0.7952   17.3334 C   0  0  0  0  0  0  0  0  0  0  0  0
   33.7445   -2.0171   17.6693 C   0  0  0  0  0  0  0  0  0  0  0  0
   34.1056   -2.6816   18.8463 C   0  0  0  0  0  0  0  0  0  0  0  0
   35.0735   -2.1060   19.6902 C   0  0  0  0  0  0  0  0  0  0  0  0
   35.6649   -0.8855   19.3543 C   0  0  0  0  0  0  0  0  0  0  0  0
   33.4791   -3.9010   19.1417 O   0  0  0  0  0  0  0  0  0  0  0  0
   32.8634   -4.7467   18.1728 C   0  0  0  0  0  0  0  0  0  0  0  0
   33.7726   -5.9399   17.8800 C   0  0  0  0  0  0  0  0  0  0  0  0
   34.2946   -5.8723   16.4982 N   0  0  0  0  0  0  0  0  0  0  0  0
   33.4744   -4.9539   15.6718 C   0  0  0  0  0  0  0  0  0  0  0  0
   34.1932   -4.5712   14.3745 C   0  0  0  0  0  0  0  0  0  0  0  0
   35.4991   -3.8126   14.6678 C   0  0  0  0  0  0  0  0  0  0  0  0
   36.0795   -4.1451   16.0524 C   0  0  0  0  0  0  0  0  0  0  0  0
   35.7569   -5.5907   16.4571 C   0  0  0  0  0  0  0  0  0  0  0  0
 13 14  1  0  0  0
 14 15  2  0  0  0
 15 16  1  0  0  0
 16 17  2  0  0  0
 17  1  1  0  0  0
  1  2  1  0  0  0
  2  3  1  0  0  0
  3  4  2  0  0  0
  4  5  1  0  0  0
  5  6  1  0  0  0
  5  7  2  0  0  0
  7  8  1  0  0  0
  8  9  2  0  0  0
  9 10  1  0  0  0
 10 11  1  0  0  0
 11 21  1  0  0  0
 21 22  2  0  0  0
 22 23  1  0  0  0
 23 24  2  0  0  0
 24 27  1  0  0  0
 27 28  1  0  0  0
 28 29  1  0  0  0
 29 30  1  0  0  0
 30 31  1  0  0  0
 31 32  1  0  0  0
 32 33  1  0  0  0
 33 34  1  0  0  0
 34 35  1  0  0  0
 24 25  1  0  0  0
 25 26  2  0  0  0
 17 18  1  0  0  0
 18 19  2  0  0  0
 19 14  1  0  0  0
 11  1  1  0  0  0
 26 21  1  0  0  0
  9  3  1  0  0  0
 35 30  1  0  0  0
 13 20  1  0  0  0
  6 12  1  0  0  0
M  END
> <minimizedAffinity>
-8.61493

$$$$
CMP_1


 35 39  0  0  0  0  0  0  0  0999 V2000
   37.0896   -0.8556   14.6392 C   0  0  0  0  0  0  0  0  0  0  0  0
   38.0750   -0.0596   13.3166 S   0  0  0  0  0  0  0  0  0  0  0  0
   39.6501   -0.9073   13.5639 C   0  0  0  0  0  0  0  0  0  0  0  0
   40.7991   -0.3137   13.0236 C   0  0  0  0  0  0  0  0  0  0  0  0
   42.0543   -0.9054   13.1934 C   0  0  0  0  0  0  0  0  0  0  0  0
   43.1806   -0.3005   12.6404 O   0  0  0  0  0  0  0  0  0  0  0  0
   42.1676   -2.0971   13.9181 C   0  0  0  0  0  0  0  0  0  0  0  0
   41.0314   -2.6875   14.4748 C   0  0  0  0  0  0  0  0  0  0  0  0
   39.7712   -2.1024   14.3057 C   0  0  0  0  0  0  0  0  0  0  0  0
   38.6768   -2.7016   14.9337 O   0  0  0  0  0  0  0  0  0  0  0  0
   37.3207   -2.3782   14.6469 C   0  0  0  0  0  0  0  0  0  0  0  0
   44.1042   -0.7038   12.7466 H   0  0  0  0  0  0  0  0  0  0  0  0
   37.8254    1.7706   19.6849 O   0  0  0  0  0  0  0  0  0  0  0  0
   37.6416    1.1203   18.4667 C   0  0  0  0  0  0  0  0  0  0  0  0
   36.3737    1.0954   17.8816 C   0  0  0  0  0  0  0  0  0  0  0  0
   36.1731    0.4501   16.6577 C   0  0  0  0  0  0  0  0  0  0  0  0
   37.2426   -0.1908   16.0016 C   0  0  0  0  0  0  0  0  0  0  0  0
   38.5170   -0.1544   16.6008 C   0  0  0  0  0  0  0  0  0  0  0  0
   38.7141    0.4938   17.8227 C   0  0  0  0  0  0  0  0  0  0  0  0
   38.7327    1.8054   20.1346 H   0  0  0  0  0  0  0  0  0  0  0  0
   36.3986   -3.0759   15.6236 C   0  0  0  0  0  0  0  0  0  0  0  0
   36.9203   -4.0113   16.5312 C   0  0  0  0  0  0  0  0  0  0  0  0
   36.0718   -4.7083   17.3956 C   0  0  0  0  0  0  0  0  0  0  0  0
   34.6897   -4.4949   17.3616 C   0  0  0  0  0  0  0  0  0  0  0  0
   34.1608   -3.5658   16.4464 C   0  0  0  0  0  0  0  0  0  0  0  0
   35.0084   -2.8666   15.5832 C   0  0  0  0  0  0  0  0  0  0  0  0
   33.8810   -5.2254   18.2442 O   0  0  0  0  0  0  0  0  0  0  0  0
   34.2931   -5.6699   19.5348 C   0  0  0  0  0  0  0  0  0  0  0  0
   33.6510   -4.7932   20.6097 C   0  0  0  0  0  0  0  0  0  0  0  0
   34.6272   -3.8172   21.1397 N   0  0  0  0  0  0  0  0  0  0  0  0
   36.0153   -4.2677   20.8763 C   0  0  0  0  0  0  0  0  0  0  0  0
   37.0215   -3.1281   21.0636 C   0  0  0  0  0  0  0  0  0  0  0  0
   36.7581   -1.9871   20.0657 C   0  0  0  0  0  0  0  0  0  0  0  0
   35.2962   -1.9402   19.5914 C   0  0  0  0  0  0  0  0  0  0  0  0
   34.3401   -2.4263   20.6903 C   0  0  0  0  0  0  0  0  0  0  0  0
 13 14  1  0  0  0
 14 15  2  0  0  0
 15 16  1  0  0  0
 16 17  2  0  0  0
 17  1  1  0  0  0
  1  2  1  0  0  0
  2  3  1  0  0  0
  3  4  2  0  0  0
  4  5  1  0  0  0
  5  6  1  0  0  0
  5  7  2  0  0  0
  7  8  1  0  0  0
  8  9  2  0  0  0
  9 10  1  0  0  0
 10 11  1  0  0  0
 11 21  1  0  0  0
 21 22  2  0  0  0
 22 23  1  0  0  0
 23 24  2  0  0  0
 24 27  1  0  0  0
 27 28  1  0  0  0
 28 29  1  0  0  0
 29 30  1  0  0  0
 30 31  1  0  0  0
 31 32  1  0  0  0
 32 33  1  0  0  0
 33 34  1  0  0  0
 34 35  1  0  0  0
 24 25  1  0  0  0
 25 26  2  0  0  0
 17 18  1  0  0  0
 18 19  2  0  0  0
 19 14  1  0  0  0
 11  1  1  0  0  0
 26 21  1  0  0  0
  9  3  1  0  0  0
 35 30  1  0  0  0
 13 20  1  0  0  0
  6 12  1  0  0  0
M  END
> <minimizedAffinity>
-8.57797

$$$$
CMP_1


 35 39  0  0  0  0  0  0  0  0999 V2000
   35.5712   -1.8899   16.4137 C   0  0  0  0  0  0  0  0  0  0  0  0
   34.3946   -3.2814   16.2320 S   0  0  0  0  0  0  0  0  0  0  0  0
   34.5218   -4.0002   17.8836 C   0  0  0  0  0  0  0  0  0  0  0  0
   34.0884   -5.3225   18.0516 C   0  0  0  0  0  0  0  0  0  0  0  0
   34.1758   -5.9482   19.2987 C   0  0  0  0  0  0  0  0  0  0  0  0
   33.7314   -7.2605   19.4427 O   0  0  0  0  0  0  0  0  0  0  0  0
   34.7100   -5.2521   20.3888 C   0  0  0  0  0  0  0  0  0  0  0  0
   35.1602   -3.9402   20.2278 C   0  0  0  0  0  0  0  0  0  0  0  0
   35.0724   -3.3065   18.9830 C   0  0  0  0  0  0  0  0  0  0  0  0
   35.5920   -2.0156   18.8627 O   0  0  0  0  0  0  0  0  0  0  0  0
   35.3471   -1.1605   17.7515 C   0  0  0  0  0  0  0  0  0  0  0  0
   33.7820   -7.7421   20.3329 H   0  0  0  0  0  0  0  0  0  0  0  0
   41.0842   -3.1269   15.4265 O   0  0  0  0  0  0  0  0  0  0  0  0
   39.7410   -2.8383   15.6574 C   0  0  0  0  0  0  0  0  0  0  0  0
   39.0434   -3.5400   16.6431 C   0  0  0  0  0  0  0  0  0  0  0  0
   37.6962   -3.2600   16.8898 C   0  0  0  0  0  0  0  0  0  0  0  0
   37.0207   -2.2740   16.1436 C   0  0  0  0  0  0  0  0  0  0  0  0
   37.7374   -1.5709   15.1555 C   0  0  0  0  0  0  0  0  0  0  0  0
   39.0845   -1.8517   14.9137 C   0  0  0  0  0  0  0  0  0  0  0  0
   41.6169   -2.6357   14.7182 H   0  0  0  0  0  0  0  0  0  0  0  0
   36.1977    0.0873   17.8540 C   0  0  0  0  0  0  0  0  0  0  0  0
   37.1973    0.1732   18.8360 C   0  0  0  0  0  0  0  0  0  0  0  0
   37.9475    1.3431   18.9821 C   0  0  0  0  0  0  0  0  0  0  0  0
   37.7061    2.4505   18.1620 C   0  0  0  0  0  0  0  0  0  0  0  0
   36.6980    2.3730   17.1831 C   0  0  0  0  0  0  0  0  0  0  0  0
   35.9488    1.2029   17.0344 C   0  0  0  0  0  0  0  0  0  0  0  0
   38.4810    3.6034   18.3544 O   0  0  0  0  0  0  0  0  0  0  0  0
   38.6326    4.6430   17.3904 C   0  0  0  0  0  0  0  0  0  0  0  0
   38.5058    6.0029   18.0767 C   0  0  0  0  0  0  0  0  0  0  0  0
   39.4825    6.1243   19.1801 N   0  0  0  0  0  0  0  0  0  0  0  0
   40.8695    6.1275   18.6552 C   0  0  0  0  0  0  0  0  0  0  0  0
   41.8671    6.6256   19.7054 C   0  0  0  0  0  0  0  0  0  0  0  0
   41.5701    8.0814   20.1048 C   0  0  0  0  0  0  0  0  0  0  0  0
   40.0980    8.4677   19.8857 C   0  0  0  0  0  0  0  0  0  0  0  0
   39.1709    7.2610   20.0912 C   0  0  0  0  0  0  0  0  0  0  0  0
 13 14  1  0  0  0
 14 15  2  0  0  0
 15 16  1  0  0  0
 16 17  2  0  0  0
 17  1  1  0  0  0
  1  2  1  0  0  0
  2  3  1  0  0  0
  3  4  2  0  0  0
  4  5  1  0  0  0
  5  6  1  0  0  0
  5  7  2  0  0  0
  7  8  1  0  0  0
  8  9  2  0  0  0
  9 10  1  0  0  0
 10 11  1  0  0  0
 11 21  1  0  0  0
 21 22  2  0  0  0
 22 23  1  0  0  0
 23 24  2  0  0  0
 24 27  1  0  0  0
 27 28  1  0  0  0
 28 29  1  0  0  0
 29 30  1  0  0  0
 30 31  1  0  0  0
 31 32  1  0  0  0
 32 33  1  0  0  0
 33 34  1  0  0  0
 34 35  1  0  0  0
 24 25  1  0  0  0
 25 26  2  0  0  0
 17 18  1  0  0  0
 18 19  2  0  0  0
 19 14  1  0  0  0
 11  1  1  0  0  0
 26 21  1  0  0  0
  9  3  1  0  0  0
 35 30  1  0  0  0
 13 20  1  0  0  0
  6 12  1  0  0  0
M  END
> <minimizedAffinity>
-8.38627

$$$$
CMP_1


 35 39  0  0  0  0  0  0  0  0999 V2000
   31.2089   -0.6046   27.6393 C   0  0  0  0  0  0  0  0  0  0  0  0
   30.0460    0.3422   26.5949 S   0  0  0  0  0  0  0  0  0  0  0  0
   28.6282   -0.6322   27.0915 C   0  0  0  0  0  0  0  0  0  0  0  0
   27.4004    0.0098   27.2611 C   0  0  0  0  0  0  0  0  0  0  0  0
   26.2523   -0.7276   27.5653 C   0  0  0  0  0  0  0  0  0  0  0  0
   25.0341   -0.0724   27.7173 O   0  0  0  0  0  0  0  0  0  0  0  0
   26.3364   -2.1190   27.7034 C   0  0  0  0  0  0  0  0  0  0  0  0
   27.5650   -2.7640   27.5512 C   0  0  0  0  0  0  0  0  0  0  0  0
   28.7225   -2.0271   27.2682 C   0  0  0  0  0  0  0  0  0  0  0  0
   29.9516   -2.7034   27.2217 O   0  0  0  0  0  0  0  0  0  0  0  0
   31.2479   -2.0947   27.2063 C   0  0  0  0  0  0  0  0  0  0  0  0
   24.1912   -0.5761   27.9755 H   0  0  0  0  0  0  0  0  0  0  0  0
   36.5087    1.5607   27.6048 O   0  0  0  0  0  0  0  0  0  0  0  0
   35.2141    1.0464   27.6283 C   0  0  0  0  0  0  0  0  0  0  0  0
   34.3073    1.4163   26.6276 C   0  0  0  0  0  0  0  0  0  0  0  0
   33.0080    0.9023   26.6254 C   0  0  0  0  0  0  0  0  0  0  0  0
   32.5909    0.0188   27.6429 C   0  0  0  0  0  0  0  0  0  0  0  0
   33.5151   -0.3586   28.6359 C   0  0  0  0  0  0  0  0  0  0  0  0
   34.8146    0.1551   28.6336 C   0  0  0  0  0  0  0  0  0  0  0  0
   37.2122    1.2533   28.2674 H   0  0  0  0  0  0  0  0  0  0  0  0
   31.9069   -2.3101   25.8578 C   0  0  0  0  0  0  0  0  0  0  0  0
   31.3724   -1.6871   24.7183 C   0  0  0  0  0  0  0  0  0  0  0  0
   31.9099   -1.9343   23.4539 C   0  0  0  0  0  0  0  0  0  0  0  0
   32.9825   -2.8190   23.2951 C   0  0  0  0  0  0  0  0  0  0  0  0
   33.5462   -3.4212   24.4398 C   0  0  0  0  0  0  0  0  0  0  0  0
   33.0077   -3.1715   25.7063 C   0  0  0  0  0  0  0  0  0  0  0  0
   33.4302   -3.0864   21.9903 O   0  0  0  0  0  0  0  0  0  0  0  0
   33.4926   -4.3813   21.3914 C   0  0  0  0  0  0  0  0  0  0  0  0
   33.4135   -4.2846   19.8599 C   0  0  0  0  0  0  0  0  0  0  0  0
   32.8243   -3.0008   19.4097 N   0  0  0  0  0  0  0  0  0  0  0  0
   31.3804   -3.1373   19.0632 C   0  0  0  0  0  0  0  0  0  0  0  0
   31.0801   -3.0794   17.5472 C   0  0  0  0  0  0  0  0  0  0  0  0
   32.1821   -3.7552   16.7298 C   0  0  0  0  0  0  0  0  0  0  0  0
   33.5666   -3.1376   17.0115 C   0  0  0  0  0  0  0  0  0  0  0  0
   33.6009   -2.3434   18.3323 C   0  0  0  0  0  0  0  0  0  0  0  0
 13 14  1  0  0  0
 14 15  2  0  0  0
 15 16  1  0  0  0
 16 17  2  0  0  0
 17  1  1  0  0  0
  1  2  1  0  0  0
  2  3  1  0  0  0
  3  4  2  0  0  0
  4  5  1  0  0  0
  5  6  1  0  0  0
  5  7  2  0  0  0
  7  8  1  0  0  0
  8  9  2  0  0  0
  9 10  1  0  0  0
 10 11  1  0  0  0
 11 21  1  0  0  0
 21 22  2  0  0  0
 22 23  1  0  0  0
 23 24  2  0  0  0
 24 27  1  0  0  0
 27 28  1  0  0  0
 28 29  1  0  0  0
 29 30  1  0  0  0
 30 31  1  0  0  0
 31 32  1  0  0  0
 32 33  1  0  0  0
 33 34  1  0  0  0
 34 35  1  0  0  0
 24 25  1  0  0  0
 25 26  2  0  0  0
 17 18  1  0  0  0
 18 19  2  0  0  0
 19 14  1  0  0  0
 11  1  1  0  0  0
 26 21  1  0  0  0
  9  3  1  0  0  0
 35 30  1  0  0  0
 13 20  1  0  0  0
  6 12  1  0  0  0
M  END
> <minimizedAffinity>
-11.05443

$$$$
CMP_1


 35 39  0  0  0  0  0  0  0  0999 V2000
   31.2246   -0.6678   27.4697 C   0  0  0  0  0  0  0  0  0  0  0  0
   30.0413    0.2820   26.4512 S   0  0  0  0  0  0  0  0  0  0  0  0
   28.6336   -0.6940   26.9726 C   0  0  0  0  0  0  0  0  0  0  0  0
   27.4093   -0.0527   27.1682 C   0  0  0  0  0  0  0  0  0  0  0  0
   26.2674   -0.7912   27.4926 C   0  0  0  0  0  0  0  0  0  0  0  0
   25.0524   -0.1366   27.6704 O   0  0  0  0  0  0  0  0  0  0  0  0
   26.3544   -2.1830   27.6248 C   0  0  0  0  0  0  0  0  0  0  0  0
   27.5797   -2.8273   27.4466 C   0  0  0  0  0  0  0  0  0  0  0  0
   28.7314   -2.0895   27.1432 C   0  0  0  0  0  0  0  0  0  0  0  0
   29.9594   -2.7655   27.0706 O   0  0  0  0  0  0  0  0  0  0  0  0
   31.2551   -2.1566   27.0315 C   0  0  0  0  0  0  0  0  0  0  0  0
   24.2148   -0.6411   27.9436 H   0  0  0  0  0  0  0  0  0  0  0  0
   36.5205    1.5020   27.3225 O   0  0  0  0  0  0  0  0  0  0  0  0
   35.2276    0.9855   27.3746 C   0  0  0  0  0  0  0  0  0  0  0  0
   34.2723    1.4248   26.4500 C   0  0  0  0  0  0  0  0  0  0  0  0
   32.9734    0.9104   26.4767 C   0  0  0  0  0  0  0  0  0  0  0  0
   32.6064   -0.0443   27.4481 C   0  0  0  0  0  0  0  0  0  0  0  0
   33.5787   -0.4905   28.3635 C   0  0  0  0  0  0  0  0  0  0  0  0
   34.8775    0.0239   28.3323 C   0  0  0  0  0  0  0  0  0  0  0  0
   37.2559    1.1490   27.9250 H   0  0  0  0  0  0  0  0  0  0  0  0
   31.8875   -2.3679   25.6697 C   0  0  0  0  0  0  0  0  0  0  0  0
   31.3562   -1.7084   24.5495 C   0  0  0  0  0  0  0  0  0  0  0  0
   31.8674   -1.9492   23.2730 C   0  0  0  0  0  0  0  0  0  0  0  0
   32.9097   -2.8634   23.0826 C   0  0  0  0  0  0  0  0  0  0  0  0
   33.4710   -3.5031   24.2080 C   0  0  0  0  0  0  0  0  0  0  0  0
   32.9589   -3.2598   25.4866 C   0  0  0  0  0  0  0  0  0  0  0  0
   33.3300   -3.1209   21.7668 O   0  0  0  0  0  0  0  0  0  0  0  0
   34.4587   -3.9175   21.4049 C   0  0  0  0  0  0  0  0  0  0  0  0
   35.7088   -3.0457   21.2102 C   0  0  0  0  0  0  0  0  0  0  0  0
   36.2746   -3.1747   19.8460 N   0  0  0  0  0  0  0  0  0  0  0  0
   37.5872   -2.4795   19.7151 C   0  0  0  0  0  0  0  0  0  0  0  0
   37.5379   -1.1744   18.8868 C   0  0  0  0  0  0  0  0  0  0  0  0
   36.2313   -0.4130   19.1150 C   0  0  0  0  0  0  0  0  0  0  0  0
   34.9977   -1.2810   18.7952 C   0  0  0  0  0  0  0  0  0  0  0  0
   35.3247   -2.7874   18.7767 C   0  0  0  0  0  0  0  0  0  0  0  0
 13 14  1  0  0  0
 14 15  2  0  0  0
 15 16  1  0  0  0
 16 17  2  0  0  0
 17  1  1  0  0  0
  1  2  1  0  0  0
  2  3  1  0  0  0
  3  4  2  0  0  0
  4  5  1  0  0  0
  5  6  1  0  0  0
  5  7  2  0  0  0
  7  8  1  0  0  0
  8  9  2  0  0  0
  9 10  1  0  0  0
 10 11  1  0  0  0
 11 21  1  0  0  0
 21 22  2  0  0  0
 22 23  1  0  0  0
 23 24  2  0  0  0
 24 27  1  0  0  0
 27 28  1  0  0  0
 28 29  1  0  0  0
 29 30  1  0  0  0
 30 31  1  0  0  0
 31 32  1  0  0  0
 32 33  1  0  0  0
 33 34  1  0  0  0
 34 35  1  0  0  0
 24 25  1  0  0  0
 25 26  2  0  0  0
 17 18  1  0  0  0
 18 19  2  0  0  0
 19 14  1  0  0  0
 11  1  1  0  0  0
 26 21  1  0  0  0
  9  3  1  0  0  0
 35 30  1  0  0  0
 13 20  1  0  0  0
  6 12  1  0  0  0
M  END
> <minimizedAffinity>
-10.98534

$$$$
CMP_1


 35 39  0  0  0  0  0  0  0  0999 V2000
   31.3347   -0.7260   27.5997 C   0  0  0  0  0  0  0  0  0  0  0  0
   30.1845    0.2947   26.6124 S   0  0  0  0  0  0  0  0  0  0  0  0
   28.7461   -0.6566   27.0943 C   0  0  0  0  0  0  0  0  0  0  0  0
   27.5408    0.0138   27.3091 C   0  0  0  0  0  0  0  0  0  0  0  0
   26.3760   -0.7011   27.6034 C   0  0  0  0  0  0  0  0  0  0  0  0
   25.1804   -0.0170   27.8010 O   0  0  0  0  0  0  0  0  0  0  0  0
   26.4207   -2.0987   27.6860 C   0  0  0  0  0  0  0  0  0  0  0  0
   27.6270   -2.7728   27.4885 C   0  0  0  0  0  0  0  0  0  0  0  0
   28.8014   -2.0596   27.2152 C   0  0  0  0  0  0  0  0  0  0  0  0
   30.0089   -2.7691   27.1221 O   0  0  0  0  0  0  0  0  0  0  0  0
   31.3224   -2.1985   27.1087 C   0  0  0  0  0  0  0  0  0  0  0  0
   24.3270   -0.5055   28.0534 H   0  0  0  0  0  0  0  0  0  0  0  0
   36.5383    1.6604   27.6649 O   0  0  0  0  0  0  0  0  0  0  0  0
   35.2780    1.0674   27.6340 C   0  0  0  0  0  0  0  0  0  0  0  0
   34.9199    0.1571   28.6359 C   0  0  0  0  0  0  0  0  0  0  0  0
   33.6564   -0.4394   28.6307 C   0  0  0  0  0  0  0  0  0  0  0  0
   32.7346   -0.1439   27.6046 C   0  0  0  0  0  0  0  0  0  0  0  0
   33.0990    0.7842   26.6105 C   0  0  0  0  0  0  0  0  0  0  0  0
   34.3625    1.3811   26.6202 C   0  0  0  0  0  0  0  0  0  0  0  0
   36.8004    2.3810   27.0013 H   0  0  0  0  0  0  0  0  0  0  0  0
   31.9538   -2.3799   25.7421 C   0  0  0  0  0  0  0  0  0  0  0  0
   31.4008   -1.7228   24.6309 C   0  0  0  0  0  0  0  0  0  0  0  0
   31.9121   -1.9378   23.3499 C   0  0  0  0  0  0  0  0  0  0  0  0
   32.9763   -2.8233   23.1457 C   0  0  0  0  0  0  0  0  0  0  0  0
   33.5587   -3.4599   24.2620 C   0  0  0  0  0  0  0  0  0  0  0  0
   33.0464   -3.2425   25.5453 C   0  0  0  0  0  0  0  0  0  0  0  0
   33.3969   -3.0569   21.8255 O   0  0  0  0  0  0  0  0  0  0  0  0
   33.9019   -4.2976   21.3305 C   0  0  0  0  0  0  0  0  0  0  0  0
   35.1017   -4.0714   20.3977 C   0  0  0  0  0  0  0  0  0  0  0  0
   36.3887   -4.4187   21.0465 N   0  0  0  0  0  0  0  0  0  0  0  0
   37.5613   -4.0060   20.2231 C   0  0  0  0  0  0  0  0  0  0  0  0
   38.3109   -5.1782   19.5479 C   0  0  0  0  0  0  0  0  0  0  0  0
   37.3470   -6.2782   19.1004 C   0  0  0  0  0  0  0  0  0  0  0  0
   36.4968   -6.8083   20.2724 C   0  0  0  0  0  0  0  0  0  0  0  0
   36.4702   -5.8368   21.4690 C   0  0  0  0  0  0  0  0  0  0  0  0
 13 14  1  0  0  0
 14 15  2  0  0  0
 15 16  1  0  0  0
 16 17  2  0  0  0
 17  1  1  0  0  0
  1  2  1  0  0  0
  2  3  1  0  0  0
  3  4  2  0  0  0
  4  5  1  0  0  0
  5  6  1  0  0  0
  5  7  2  0  0  0
  7  8  1  0  0  0
  8  9  2  0  0  0
  9 10  1  0  0  0
 10 11  1  0  0  0
 11 21  1  0  0  0
 21 22  2  0  0  0
 22 23  1  0  0  0
 23 24  2  0  0  0
 24 27  1  0  0  0
 27 28  1  0  0  0
 28 29  1  0  0  0
 29 30  1  0  0  0
 30 31  1  0  0  0
 31 32  1  0  0  0
 32 33  1  0  0  0
 33 34  1  0  0  0
 34 35  1  0  0  0
 24 25  1  0  0  0
 25 26  2  0  0  0
 17 18  1  0  0  0
 18 19  2  0  0  0
 19 14  1  0  0  0
 11  1  1  0  0  0
 26 21  1  0  0  0
  9  3  1  0  0  0
 35 30  1  0  0  0
 13 20  1  0  0  0
  6 12  1  0  0  0
M  END
> <minimizedAffinity>
-10.25520

$$$$
CMP_1


 35 39  0  0  0  0  0  0  0  0999 V2000
   36.7327   -2.3806   17.6252 C   0  0  0  0  0  0  0  0  0  0  0  0
   35.3478   -1.2460   17.2584 S   0  0  0  0  0  0  0  0  0  0  0  0
   36.3320    0.2254   17.5278 C   0  0  0  0  0  0  0  0  0  0  0  0
   36.1159    1.3350   16.7090 C   0  0  0  0  0  0  0  0  0  0  0  0
   36.8030    2.5302   16.9409 C   0  0  0  0  0  0  0  0  0  0  0  0
   36.5647    3.6306   16.1230 O   0  0  0  0  0  0  0  0  0  0  0  0
   37.7160    2.6126   18.0000 C   0  0  0  0  0  0  0  0  0  0  0  0
   37.9481    1.5008   18.8114 C   0  0  0  0  0  0  0  0  0  0  0  0
   37.2786    0.2941   18.5696 C   0  0  0  0  0  0  0  0  0  0  0  0
   37.6151   -0.8254   19.3465 O   0  0  0  0  0  0  0  0  0  0  0  0
   37.2363   -2.1805   19.0798 C   0  0  0  0  0  0  0  0  0  0  0  0
   37.0760    4.4995   16.2431 H   0  0  0  0  0  0  0  0  0  0  0  0
   35.3611   -7.8757   16.7894 O   0  0  0  0  0  0  0  0  0  0  0  0
   35.7031   -6.5378   16.9742 C   0  0  0  0  0  0  0  0  0  0  0  0
   34.7092   -5.5549   16.8932 C   0  0  0  0  0  0  0  0  0  0  0  0
   35.0284   -4.2086   17.0878 C   0  0  0  0  0  0  0  0  0  0  0  0
   36.3601   -3.8242   17.3500 C   0  0  0  0  0  0  0  0  0  0  0  0
   37.3492   -4.8218   17.4445 C   0  0  0  0  0  0  0  0  0  0  0  0
   37.0260   -6.1676   17.2521 C   0  0  0  0  0  0  0  0  0  0  0  0
   36.0398   -8.6180   16.9188 H   0  0  0  0  0  0  0  0  0  0  0  0
   36.2500   -2.6600   20.1269 C   0  0  0  0  0  0  0  0  0  0  0  0
   36.6336   -3.6631   21.0317 C   0  0  0  0  0  0  0  0  0  0  0  0
   35.7190   -4.1799   21.9511 C   0  0  0  0  0  0  0  0  0  0  0  0
   34.3981   -3.7189   21.9796 C   0  0  0  0  0  0  0  0  0  0  0  0
   34.0158   -2.6868   21.0966 C   0  0  0  0  0  0  0  0  0  0  0  0
   34.9336   -2.1689   20.1770 C   0  0  0  0  0  0  0  0  0  0  0  0
   33.5042   -4.3309   22.8745 O   0  0  0  0  0  0  0  0  0  0  0  0
   32.6297   -3.6382   23.7660 C   0  0  0  0  0  0  0  0  0  0  0  0
   33.3417   -3.3010   25.0852 C   0  0  0  0  0  0  0  0  0  0  0  0
   32.3936   -2.8619   26.1369 N   0  0  0  0  0  0  0  0  0  0  0  0
   31.1575   -2.2584   25.5612 C   0  0  0  0  0  0  0  0  0  0  0  0
   31.0625   -0.7231   25.7225 C   0  0  0  0  0  0  0  0  0  0  0  0
   32.4333   -0.0582   25.5884 C   0  0  0  0  0  0  0  0  0  0  0  0
   33.4489   -0.6273   26.5993 C   0  0  0  0  0  0  0  0  0  0  0  0
   33.0160   -1.9946   27.1646 C   0  0  0  0  0  0  0  0  0  0  0  0
 13 14  1  0  0  0
 14 15  2  0  0  0
 15 16  1  0  0  0
 16 17  2  0  0  0
 17  1  1  0  0  0
  1  2  1  0  0  0
  2  3  1  0  0  0
  3  4  2  0  0  0
  4  5  1  0  0  0
  5  6  1  0  0  0
  5  7  2  0  0  0
  7  8  1  0  0  0
  8  9  2  0  0  0
  9 10  1  0  0  0
 10 11  1  0  0  0
 11 21  1  0  0  0
 21 22  2  0  0  0
 22 23  1  0  0  0
 23 24  2  0  0  0
 24 27  1  0  0  0
 27 28  1  0  0  0
 28 29  1  0  0  0
 29 30  1  0  0  0
 30 31  1  0  0  0
 31 32  1  0  0  0
 32 33  1  0  0  0
 33 34  1  0  0  0
 34 35  1  0  0  0
 24 25  1  0  0  0
 25 26  2  0  0  0
 17 18  1  0  0  0
 18 19  2  0  0  0
 19 14  1  0  0  0
 11  1  1  0  0  0
 26 21  1  0  0  0
  9  3  1  0  0  0
 35 30  1  0  0  0
 13 20  1  0  0  0
  6 12  1  0  0  0
M  END
> <minimizedAffinity>
-9.32894

$$$$
CMP_1


 35 39  0  0  0  0  0  0  0  0999 V2000
   34.1109   -4.5970   19.1596 C   0  0  0  0  0  0  0  0  0  0  0  0
   33.2439   -3.7349   20.5179 S   0  0  0  0  0  0  0  0  0  0  0  0
   31.8380   -3.3007   19.4976 C   0  0  0  0  0  0  0  0  0  0  0  0
   30.5641   -3.3239   20.0676 C   0  0  0  0  0  0  0  0  0  0  0  0
   29.4509   -2.9104   19.3298 C   0  0  0  0  0  0  0  0  0  0  0  0
   28.1903   -2.9273   19.9187 O   0  0  0  0  0  0  0  0  0  0  0  0
   29.6160   -2.4731   18.0093 C   0  0  0  0  0  0  0  0  0  0  0  0
   30.8856   -2.4636   17.4292 C   0  0  0  0  0  0  0  0  0  0  0  0
   32.0011   -2.8979   18.1570 C   0  0  0  0  0  0  0  0  0  0  0  0
   33.2416   -2.9655   17.5036 O   0  0  0  0  0  0  0  0  0  0  0  0
   34.4180   -3.6179   17.9949 C   0  0  0  0  0  0  0  0  0  0  0  0
   27.3589   -2.6692   19.3963 H   0  0  0  0  0  0  0  0  0  0  0  0
   38.7110   -7.3739   21.1359 O   0  0  0  0  0  0  0  0  0  0  0  0
   37.6022   -6.6809   20.6546 C   0  0  0  0  0  0  0  0  0  0  0  0
   37.2302   -6.8228   19.3123 C   0  0  0  0  0  0  0  0  0  0  0  0
   36.1143   -6.1467   18.8124 C   0  0  0  0  0  0  0  0  0  0  0  0
   35.3613   -5.2991   19.6518 C   0  0  0  0  0  0  0  0  0  0  0  0
   35.7349   -5.1752   21.0036 C   0  0  0  0  0  0  0  0  0  0  0  0
   36.8499   -5.8551   21.5010 C   0  0  0  0  0  0  0  0  0  0  0  0
   38.9607   -7.3555   22.1185 H   0  0  0  0  0  0  0  0  0  0  0  0
   35.4769   -2.5890   18.3402 C   0  0  0  0  0  0  0  0  0  0  0  0
   35.1216   -1.4525   19.0847 C   0  0  0  0  0  0  0  0  0  0  0  0
   36.0583   -0.4508   19.3452 C   0  0  0  0  0  0  0  0  0  0  0  0
   37.3659   -0.5524   18.8571 C   0  0  0  0  0  0  0  0  0  0  0  0
   37.7386   -1.7077   18.1381 C   0  0  0  0  0  0  0  0  0  0  0  0
   36.7995   -2.7114   17.8792 C   0  0  0  0  0  0  0  0  0  0  0  0
   38.2415    0.5226   19.0859 O   0  0  0  0  0  0  0  0  0  0  0  0
   38.1374    1.8115   18.4800 C   0  0  0  0  0  0  0  0  0  0  0  0
   38.4627    1.7430   16.9798 C   0  0  0  0  0  0  0  0  0  0  0  0
   37.4669    2.4706   16.1572 N   0  0  0  0  0  0  0  0  0  0  0  0
   36.1585    2.6149   16.8578 C   0  0  0  0  0  0  0  0  0  0  0  0
   35.0312    1.7184   16.2945 C   0  0  0  0  0  0  0  0  0  0  0  0
   35.5674    0.3600   15.8402 C   0  0  0  0  0  0  0  0  0  0  0  0
   36.6898    0.5067   14.7933 C   0  0  0  0  0  0  0  0  0  0  0  0
   37.3147    1.9160   14.7915 C   0  0  0  0  0  0  0  0  0  0  0  0
 13 14  1  0  0  0
 14 15  2  0  0  0
 15 16  1  0  0  0
 16 17  2  0  0  0
 17  1  1  0  0  0
  1  2  1  0  0  0
  2  3  1  0  0  0
  3  4  2  0  0  0
  4  5  1  0  0  0
  5  6  1  0  0  0
  5  7  2  0  0  0
  7  8  1  0  0  0
  8  9  2  0  0  0
  9 10  1  0  0  0
 10 11  1  0  0  0
 11 21  1  0  0  0
 21 22  2  0  0  0
 22 23  1  0  0  0
 23 24  2  0  0  0
 24 27  1  0  0  0
 27 28  1  0  0  0
 28 29  1  0  0  0
 29 30  1  0  0  0
 30 31  1  0  0  0
 31 32  1  0  0  0
 32 33  1  0  0  0
 33 34  1  0  0  0
 34 35  1  0  0  0
 24 25  1  0  0  0
 25 26  2  0  0  0
 17 18  1  0  0  0
 18 19  2  0  0  0
 19 14  1  0  0  0
 11  1  1  0  0  0
 26 21  1  0  0  0
  9  3  1  0  0  0
 35 30  1  0  0  0
 13 20  1  0  0  0
  6 12  1  0  0  0
M  END
> <minimizedAffinity>
-9.21348

$$$$
CMP_1


 35 39  0  0  0  0  0  0  0  0999 V2000
   36.6107   -2.4576   17.6668 C   0  0  0  0  0  0  0  0  0  0  0  0
   35.2416   -1.2900   17.3474 S   0  0  0  0  0  0  0  0  0  0  0  0
   36.2748    0.1571   17.5584 C   0  0  0  0  0  0  0  0  0  0  0  0
   36.0528    1.2641   16.7377 C   0  0  0  0  0  0  0  0  0  0  0  0
   36.7805    2.4427   16.9270 C   0  0  0  0  0  0  0  0  0  0  0  0
   36.5362    3.5411   16.1083 O   0  0  0  0  0  0  0  0  0  0  0  0
   37.7402    2.5109   17.9451 C   0  0  0  0  0  0  0  0  0  0  0  0
   37.9777    1.4012   18.7579 C   0  0  0  0  0  0  0  0  0  0  0  0
   37.2669    0.2106   18.5579 C   0  0  0  0  0  0  0  0  0  0  0  0
   37.6070   -0.9100   19.3318 O   0  0  0  0  0  0  0  0  0  0  0  0
   37.1816   -2.2570   19.0962 C   0  0  0  0  0  0  0  0  0  0  0  0
   37.0749    4.3971   16.1969 H   0  0  0  0  0  0  0  0  0  0  0  0
   34.9724   -7.8280   16.5483 O   0  0  0  0  0  0  0  0  0  0  0  0
   35.3636   -6.5229   16.8393 C   0  0  0  0  0  0  0  0  0  0  0  0
   36.7145   -6.2464   17.0824 C   0  0  0  0  0  0  0  0  0  0  0  0
   37.1300   -4.9423   17.3636 C   0  0  0  0  0  0  0  0  0  0  0  0
   36.1887   -3.8933   17.4235 C   0  0  0  0  0  0  0  0  0  0  0  0
   34.8350   -4.1794   17.1625 C   0  0  0  0  0  0  0  0  0  0  0  0
   34.4233   -5.4843   16.8788 C   0  0  0  0  0  0  0  0  0  0  0  0
   34.0168   -8.0489   16.2905 H   0  0  0  0  0  0  0  0  0  0  0  0
   36.2290   -2.6998   20.1897 C   0  0  0  0  0  0  0  0  0  0  0  0
   36.6126   -3.7256   21.0688 C   0  0  0  0  0  0  0  0  0  0  0  0
   35.7234   -4.2078   22.0309 C   0  0  0  0  0  0  0  0  0  0  0  0
   34.4276   -3.6887   22.1289 C   0  0  0  0  0  0  0  0  0  0  0  0
   34.0478   -2.6343   21.2717 C   0  0  0  0  0  0  0  0  0  0  0  0
   34.9401   -2.1510   20.3092 C   0  0  0  0  0  0  0  0  0  0  0  0
   33.5537   -4.2669   23.0650 O   0  0  0  0  0  0  0  0  0  0  0  0
   32.4171   -3.6196   23.6383 C   0  0  0  0  0  0  0  0  0  0  0  0
   32.6856   -3.2260   25.0991 C   0  0  0  0  0  0  0  0  0  0  0  0
   31.7712   -2.1576   25.5683 N   0  0  0  0  0  0  0  0  0  0  0  0
   31.9997   -0.8695   24.8526 C   0  0  0  0  0  0  0  0  0  0  0  0
   32.6898    0.2204   25.7058 C   0  0  0  0  0  0  0  0  0  0  0  0
   33.7288   -0.3815   26.6530 C   0  0  0  0  0  0  0  0  0  0  0  0
   33.1129   -1.4534   27.5746 C   0  0  0  0  0  0  0  0  0  0  0  0
   31.7698   -1.9897   27.0406 C   0  0  0  0  0  0  0  0  0  0  0  0
 13 14  1  0  0  0
 14 15  2  0  0  0
 15 16  1  0  0  0
 16 17  2  0  0  0
 17  1  1  0  0  0
  1  2  1  0  0  0
  2  3  1  0  0  0
  3  4  2  0  0  0
  4  5  1  0  0  0
  5  6  1  0  0  0
  5  7  2  0  0  0
  7  8  1  0  0  0
  8  9  2  0  0  0
  9 10  1  0  0  0
 10 11  1  0  0  0
 11 21  1  0  0  0
 21 22  2  0  0  0
 22 23  1  0  0  0
 23 24  2  0  0  0
 24 27  1  0  0  0
 27 28  1  0  0  0
 28 29  1  0  0  0
 29 30  1  0  0  0
 30 31  1  0  0  0
 31 32  1  0  0  0
 32 33  1  0  0  0
 33 34  1  0  0  0
 34 35  1  0  0  0
 24 25  1  0  0  0
 25 26  2  0  0  0
 17 18  1  0  0  0
 18 19  2  0  0  0
 19 14  1  0  0  0
 11  1  1  0  0  0
 26 21  1  0  0  0
  9  3  1  0  0  0
 35 30  1  0  0  0
 13 20  1  0  0  0
  6 12  1  0  0  0
M  END
> <minimizedAffinity>
-9.16205

$$$$
CMP_1


 35 39  0  0  0  0  0  0  0  0999 V2000
   39.3741   -0.6610   14.8193 C   0  0  0  0  0  0  0  0  0  0  0  0
   40.2445   -2.2333   15.1512 S   0  0  0  0  0  0  0  0  0  0  0  0
   40.5765   -2.5469   13.4198 C   0  0  0  0  0  0  0  0  0  0  0  0
   41.7947   -3.1293   13.0662 C   0  0  0  0  0  0  0  0  0  0  0  0
   42.0575   -3.4678   11.7355 C   0  0  0  0  0  0  0  0  0  0  0  0
   43.2720   -4.0603   11.4033 O   0  0  0  0  0  0  0  0  0  0  0  0
   41.0925   -3.2178   10.7513 C   0  0  0  0  0  0  0  0  0  0  0  0
   39.8793   -2.6203   11.0972 C   0  0  0  0  0  0  0  0  0  0  0  0
   39.6200   -2.2590   12.4257 C   0  0  0  0  0  0  0  0  0  0  0  0
   38.4302   -1.5716   12.7123 O   0  0  0  0  0  0  0  0  0  0  0  0
   38.1183   -0.9032   13.9398 C   0  0  0  0  0  0  0  0  0  0  0  0
   43.5065   -4.2823   10.4407 H   0  0  0  0  0  0  0  0  0  0  0  0
   37.8820    2.1067   19.6038 O   0  0  0  0  0  0  0  0  0  0  0  0
   38.2629    1.4430   18.4395 C   0  0  0  0  0  0  0  0  0  0  0  0
   38.6628    0.1029   18.5096 C   0  0  0  0  0  0  0  0  0  0  0  0
   39.0366   -0.5850   17.3523 C   0  0  0  0  0  0  0  0  0  0  0  0
   39.0323    0.0700   16.1029 C   0  0  0  0  0  0  0  0  0  0  0  0
   38.6140    1.4130   16.0413 C   0  0  0  0  0  0  0  0  0  0  0  0
   38.2381    2.0972   17.2003 C   0  0  0  0  0  0  0  0  0  0  0  0
   37.5130    3.0509   19.5779 H   0  0  0  0  0  0  0  0  0  0  0  0
   37.0109   -1.6414   14.6664 C   0  0  0  0  0  0  0  0  0  0  0  0
   36.8294   -3.0153   14.4393 C   0  0  0  0  0  0  0  0  0  0  0  0
   35.7671   -3.7004   15.0318 C   0  0  0  0  0  0  0  0  0  0  0  0
   34.8537   -3.0287   15.8519 C   0  0  0  0  0  0  0  0  0  0  0  0
   35.0504   -1.6559   16.1119 C   0  0  0  0  0  0  0  0  0  0  0  0
   36.1161   -0.9710   15.5189 C   0  0  0  0  0  0  0  0  0  0  0  0
   33.7620   -3.7548   16.3574 O   0  0  0  0  0  0  0  0  0  0  0  0
   33.1608   -3.5518   17.6368 C   0  0  0  0  0  0  0  0  0  0  0  0
   33.7053   -4.5536   18.6667 C   0  0  0  0  0  0  0  0  0  0  0  0
   34.1087   -3.8932   19.9312 N   0  0  0  0  0  0  0  0  0  0  0  0
   34.3046   -2.4250   19.7594 C   0  0  0  0  0  0  0  0  0  0  0  0
   35.7827   -1.9710   19.7892 C   0  0  0  0  0  0  0  0  0  0  0  0
   36.6998   -2.9991   19.1252 C   0  0  0  0  0  0  0  0  0  0  0  0
   36.5682   -4.3908   19.7758 C   0  0  0  0  0  0  0  0  0  0  0  0
   35.2674   -4.5414   20.5893 C   0  0  0  0  0  0  0  0  0  0  0  0
 13 14  1  0  0  0
 14 15  2  0  0  0
 15 16  1  0  0  0
 16 17  2  0  0  0
 17  1  1  0  0  0
  1  2  1  0  0  0
  2  3  1  0  0  0
  3  4  2  0  0  0
  4  5  1  0  0  0
  5  6  1  0  0  0
  5  7  2  0  0  0
  7  8  1  0  0  0
  8  9  2  0  0  0
  9 10  1  0  0  0
 10 11  1  0  0  0
 11 21  1  0  0  0
 21 22  2  0  0  0
 22 23  1  0  0  0
 23 24  2  0  0  0
 24 27  1  0  0  0
 27 28  1  0  0  0
 28 29  1  0  0  0
 29 30  1  0  0  0
 30 31  1  0  0  0
 31 32  1  0  0  0
 32 33  1  0  0  0
 33 34  1  0  0  0
 34 35  1  0  0  0
 24 25  1  0  0  0
 25 26  2  0  0  0
 17 18  1  0  0  0
 18 19  2  0  0  0
 19 14  1  0  0  0
 11  1  1  0  0  0
 26 21  1  0  0  0
  9  3  1  0  0  0
 35 30  1  0  0  0
 13 20  1  0  0  0
  6 12  1  0  0  0
M  END
> <minimizedAffinity>
-9.08566

$$$$
CMP_1


 35 39  0  0  0  0  0  0  0  0999 V2000
   39.6273   -0.5778   15.2671 C   0  0  0  0  0  0  0  0  0  0  0  0
   38.4739    0.6748   14.6035 S   0  0  0  0  0  0  0  0  0  0  0  0
   38.3997    1.5875   16.1422 C   0  0  0  0  0  0  0  0  0  0  0  0
   38.3301    2.9806   16.0920 C   0  0  0  0  0  0  0  0  0  0  0  0
   38.1855    3.7248   17.2666 C   0  0  0  0  0  0  0  0  0  0  0  0
   38.1040    5.1122   17.1964 O   0  0  0  0  0  0  0  0  0  0  0  0
   38.1131    3.0672   18.5013 C   0  0  0  0  0  0  0  0  0  0  0  0
   38.1989    1.6752   18.5584 C   0  0  0  0  0  0  0  0  0  0  0  0
   38.3661    0.9262   17.3863 C   0  0  0  0  0  0  0  0  0  0  0  0
   38.5472   -0.4611   17.4986 O   0  0  0  0  0  0  0  0  0  0  0  0
   38.9850   -1.3406   16.4566 C   0  0  0  0  0  0  0  0  0  0  0  0
   38.0371    5.6812   18.0345 H   0  0  0  0  0  0  0  0  0  0  0  0
   41.3917   -4.3096   11.3001 O   0  0  0  0  0  0  0  0  0  0  0  0
   40.9774   -3.3889   12.2602 C   0  0  0  0  0  0  0  0  0  0  0  0
   39.8426   -2.6051   12.0189 C   0  0  0  0  0  0  0  0  0  0  0  0
   39.4026   -1.6847   12.9737 C   0  0  0  0  0  0  0  0  0  0  0  0
   40.1091   -1.5230   14.1840 C   0  0  0  0  0  0  0  0  0  0  0  0
   41.2400   -2.3268   14.4232 C   0  0  0  0  0  0  0  0  0  0  0  0
   41.6757   -3.2483   13.4673 C   0  0  0  0  0  0  0  0  0  0  0  0
   42.1609   -4.9468   11.4753 H   0  0  0  0  0  0  0  0  0  0  0  0
   37.8510   -2.2565   16.0391 C   0  0  0  0  0  0  0  0  0  0  0  0
   36.6070   -1.7048   15.6925 C   0  0  0  0  0  0  0  0  0  0  0  0
   35.5236   -2.5295   15.3844 C   0  0  0  0  0  0  0  0  0  0  0  0
   35.6518   -3.9222   15.4291 C   0  0  0  0  0  0  0  0  0  0  0  0
   36.9081   -4.4827   15.7428 C   0  0  0  0  0  0  0  0  0  0  0  0
   37.9932   -3.6552   16.0498 C   0  0  0  0  0  0  0  0  0  0  0  0
   34.5067   -4.6990   15.1842 O   0  0  0  0  0  0  0  0  0  0  0  0
   33.1634   -4.2872   15.4399 C   0  0  0  0  0  0  0  0  0  0  0  0
   32.7391   -4.6492   16.8716 C   0  0  0  0  0  0  0  0  0  0  0  0
   33.0558   -3.5714   17.8390 N   0  0  0  0  0  0  0  0  0  0  0  0
   32.8283   -3.9989   19.2493 C   0  0  0  0  0  0  0  0  0  0  0  0
   31.5847   -3.3648   19.9152 C   0  0  0  0  0  0  0  0  0  0  0  0
   30.4368   -3.1985   18.9183 C   0  0  0  0  0  0  0  0  0  0  0  0
   30.8568   -2.3614   17.6935 C   0  0  0  0  0  0  0  0  0  0  0  0
   32.3875   -2.2862   17.5267 C   0  0  0  0  0  0  0  0  0  0  0  0
 13 14  1  0  0  0
 14 15  2  0  0  0
 15 16  1  0  0  0
 16 17  2  0  0  0
 17  1  1  0  0  0
  1  2  1  0  0  0
  2  3  1  0  0  0
  3  4  2  0  0  0
  4  5  1  0  0  0
  5  6  1  0  0  0
  5  7  2  0  0  0
  7  8  1  0  0  0
  8  9  2  0  0  0
  9 10  1  0  0  0
 10 11  1  0  0  0
 11 21  1  0  0  0
 21 22  2  0  0  0
 22 23  1  0  0  0
 23 24  2  0  0  0
 24 27  1  0  0  0
 27 28  1  0  0  0
 28 29  1  0  0  0
 29 30  1  0  0  0
 30 31  1  0  0  0
 31 32  1  0  0  0
 32 33  1  0  0  0
 33 34  1  0  0  0
 34 35  1  0  0  0
 24 25  1  0  0  0
 25 26  2  0  0  0
 17 18  1  0  0  0
 18 19  2  0  0  0
 19 14  1  0  0  0
 11  1  1  0  0  0
 26 21  1  0  0  0
  9  3  1  0  0  0
 35 30  1  0  0  0
 13 20  1  0  0  0
  6 12  1  0  0  0
M  END
> <minimizedAffinity>
-8.96544

$$$$
CMP_1


 35 39  0  0  0  0  0  0  0  0999 V2000
   34.9606   -2.6813   16.7596 C   0  0  0  0  0  0  0  0  0  0  0  0
   34.6782   -0.9351   17.2188 S   0  0  0  0  0  0  0  0  0  0  0  0
   36.3626   -0.4483   16.8555 C   0  0  0  0  0  0  0  0  0  0  0  0
   36.5890    0.8037   16.2814 C   0  0  0  0  0  0  0  0  0  0  0  0
   37.8934    1.2556   16.0606 C   0  0  0  0  0  0  0  0  0  0  0  0
   38.1004    2.5122   15.4999 O   0  0  0  0  0  0  0  0  0  0  0  0
   38.9791    0.4447   16.4154 C   0  0  0  0  0  0  0  0  0  0  0  0
   38.7579   -0.8150   16.9746 C   0  0  0  0  0  0  0  0  0  0  0  0
   37.4526   -1.2816   17.1774 C   0  0  0  0  0  0  0  0  0  0  0  0
   37.2759   -2.5917   17.6492 O   0  0  0  0  0  0  0  0  0  0  0  0
   36.0433   -3.3206   17.6699 C   0  0  0  0  0  0  0  0  0  0  0  0
   39.0346    2.8516   15.2927 H   0  0  0  0  0  0  0  0  0  0  0  0
   30.1748   -5.8178   16.9480 O   0  0  0  0  0  0  0  0  0  0  0  0
   31.3364   -5.0514   16.8823 C   0  0  0  0  0  0  0  0  0  0  0  0
   31.3329   -3.7493   17.3973 C   0  0  0  0  0  0  0  0  0  0  0  0
   32.4905   -2.9681   17.3529 C   0  0  0  0  0  0  0  0  0  0  0  0
   33.6706   -3.4777   16.7716 C   0  0  0  0  0  0  0  0  0  0  0  0
   33.6677   -4.7934   16.2705 C   0  0  0  0  0  0  0  0  0  0  0  0
   32.5090   -5.5731   16.3190 C   0  0  0  0  0  0  0  0  0  0  0  0
   30.1647   -6.7891   16.6567 H   0  0  0  0  0  0  0  0  0  0  0  0
   35.5820   -3.5206   19.1004 C   0  0  0  0  0  0  0  0  0  0  0  0
   35.3815   -4.8222   19.5878 C   0  0  0  0  0  0  0  0  0  0  0  0
   34.8787   -5.0313   20.8732 C   0  0  0  0  0  0  0  0  0  0  0  0
   34.5509   -3.9479   21.6961 C   0  0  0  0  0  0  0  0  0  0  0  0
   34.7825   -2.6382   21.2252 C   0  0  0  0  0  0  0  0  0  0  0  0
   35.2878   -2.4301   19.9377 C   0  0  0  0  0  0  0  0  0  0  0  0
   33.9772   -4.2205   22.9495 O   0  0  0  0  0  0  0  0  0  0  0  0
   32.8033   -3.5958   23.4701 C   0  0  0  0  0  0  0  0  0  0  0  0
   32.9164   -3.3887   24.9884 C   0  0  0  0  0  0  0  0  0  0  0  0
   32.9841   -1.9536   25.3542 N   0  0  0  0  0  0  0  0  0  0  0  0
   33.1544   -1.7565   26.8225 C   0  0  0  0  0  0  0  0  0  0  0  0
   31.8926   -1.2309   27.5460 C   0  0  0  0  0  0  0  0  0  0  0  0
   30.6146   -1.8179   26.9449 C   0  0  0  0  0  0  0  0  0  0  0  0
   30.5068   -1.5318   25.4337 C   0  0  0  0  0  0  0  0  0  0  0  0
   31.8633   -1.1539   24.8063 C   0  0  0  0  0  0  0  0  0  0  0  0
 13 14  1  0  0  0
 14 15  2  0  0  0
 15 16  1  0  0  0
 16 17  2  0  0  0
 17  1  1  0  0  0
  1  2  1  0  0  0
  2  3  1  0  0  0
  3  4  2  0  0  0
  4  5  1  0  0  0
  5  6  1  0  0  0
  5  7  2  0  0  0
  7  8  1  0  0  0
  8  9  2  0  0  0
  9 10  1  0  0  0
 10 11  1  0  0  0
 11 21  1  0  0  0
 21 22  2  0  0  0
 22 23  1  0  0  0
 23 24  2  0  0  0
 24 27  1  0  0  0
 27 28  1  0  0  0
 28 29  1  0  0  0
 29 30  1  0  0  0
 30 31  1  0  0  0
 31 32  1  0  0  0
 32 33  1  0  0  0
 33 34  1  0  0  0
 34 35  1  0  0  0
 24 25  1  0  0  0
 25 26  2  0  0  0
 17 18  1  0  0  0
 18 19  2  0  0  0
 19 14  1  0  0  0
 11  1  1  0  0  0
 26 21  1  0  0  0
  9  3  1  0  0  0
 35 30  1  0  0  0
 13 20  1  0  0  0
  6 12  1  0  0  0
M  END
> <minimizedAffinity>
-8.93834

$$$$
CMP_1


 35 39  0  0  0  0  0  0  0  0999 V2000
   36.1113   -3.1304   17.8467 C   0  0  0  0  0  0  0  0  0  0  0  0
   37.0225   -2.5352   16.3737 S   0  0  0  0  0  0  0  0  0  0  0  0
   36.2859   -0.8948   16.2067 C   0  0  0  0  0  0  0  0  0  0  0  0
   36.4111   -0.2495   14.9687 C   0  0  0  0  0  0  0  0  0  0  0  0
   35.8480    1.0134   14.7631 C   0  0  0  0  0  0  0  0  0  0  0  0
   35.9937    1.6388   13.5267 O   0  0  0  0  0  0  0  0  0  0  0  0
   35.1429    1.6363   15.7990 C   0  0  0  0  0  0  0  0  0  0  0  0
   34.9986    0.9948   17.0307 C   0  0  0  0  0  0  0  0  0  0  0  0
   35.5636   -0.2677   17.2450 C   0  0  0  0  0  0  0  0  0  0  0  0
   35.3400   -0.8897   18.4753 O   0  0  0  0  0  0  0  0  0  0  0  0
   36.0539   -2.0350   18.9275 C   0  0  0  0  0  0  0  0  0  0  0  0
   35.5960    2.5531   13.3456 H   0  0  0  0  0  0  0  0  0  0  0  0
   31.0199   -5.5626   16.8166 O   0  0  0  0  0  0  0  0  0  0  0  0
   32.2603   -4.9744   17.0532 C   0  0  0  0  0  0  0  0  0  0  0  0
   33.2945   -5.7035   17.6501 C   0  0  0  0  0  0  0  0  0  0  0  0
   34.5339   -5.1020   17.8826 C   0  0  0  0  0  0  0  0  0  0  0  0
   34.7633   -3.7604   17.5195 C   0  0  0  0  0  0  0  0  0  0  0  0
   33.7107   -3.0358   16.9258 C   0  0  0  0  0  0  0  0  0  0  0  0
   32.4728   -3.6421   16.6924 C   0  0  0  0  0  0  0  0  0  0  0  0
   30.8352   -6.5274   17.0657 H   0  0  0  0  0  0  0  0  0  0  0  0
   35.4509   -2.5530   20.2154 C   0  0  0  0  0  0  0  0  0  0  0  0
   36.1929   -3.4168   21.0369 C   0  0  0  0  0  0  0  0  0  0  0  0
   35.6300   -3.9463   22.2017 C   0  0  0  0  0  0  0  0  0  0  0  0
   34.3061   -3.6285   22.5582 C   0  0  0  0  0  0  0  0  0  0  0  0
   33.5624   -2.7794   21.7321 C   0  0  0  0  0  0  0  0  0  0  0  0
   34.1245   -2.2475   20.5691 C   0  0  0  0  0  0  0  0  0  0  0  0
   33.6956   -4.1342   23.7148 O   0  0  0  0  0  0  0  0  0  0  0  0
   32.5673   -3.5433   24.3557 C   0  0  0  0  0  0  0  0  0  0  0  0
   32.8747   -3.3135   25.8380 C   0  0  0  0  0  0  0  0  0  0  0  0
   32.4240   -1.9789   26.2940 N   0  0  0  0  0  0  0  0  0  0  0  0
   33.1139   -1.5743   27.5488 C   0  0  0  0  0  0  0  0  0  0  0  0
   34.3105   -0.6484   27.2914 C   0  0  0  0  0  0  0  0  0  0  0  0
   33.8672    0.6507   26.5969 C   0  0  0  0  0  0  0  0  0  0  0  0
   32.6007    0.4623   25.7456 C   0  0  0  0  0  0  0  0  0  0  0  0
   32.5118   -0.9694   25.2044 C   0  0  0  0  0  0  0  0  0  0  0  0
 13 14  1  0  0  0
 14 15  2  0  0  0
 15 16  1  0  0  0
 16 17  2  0  0  0
 17  1  1  0  0  0
  1  2  1  0  0  0
  2  3  1  0  0  0
  3  4  2  0  0  0
  4  5  1  0  0  0
  5  6  1  0  0  0
  5  7  2  0  0  0
  7  8  1  0  0  0
  8  9  2  0  0  0
  9 10  1  0  0  0
 10 11  1  0  0  0
 11 21  1  0  0  0
 21 22  2  0  0  0
 22 23  1  0  0  0
 23 24  2  0  0  0
 24 27  1  0  0  0
 27 28  1  0  0  0
 28 29  1  0  0  0
 29 30  1  0  0  0
 30 31  1  0  0  0
 31 32  1  0  0  0
 32 33  1  0  0  0
 33 34  1  0  0  0
 34 35  1  0  0  0
 24 25  1  0  0  0
 25 26  2  0  0  0
 17 18  1  0  0  0
 18 19  2  0  0  0
 19 14  1  0  0  0
 11  1  1  0  0  0
 26 21  1  0  0  0
  9  3  1  0  0  0
 35 30  1  0  0  0
 13 20  1  0  0  0
  6 12  1  0  0  0
M  END
> <minimizedAffinity>
-9.42147

$$$$
CMP_1


 35 39  0  0  0  0  0  0  0  0999 V2000
   36.0698   -3.2956   17.8428 C   0  0  0  0  0  0  0  0  0  0  0  0
   37.0046   -2.6933   16.3875 S   0  0  0  0  0  0  0  0  0  0  0  0
   36.2800   -1.0472   16.2245 C   0  0  0  0  0  0  0  0  0  0  0  0
   36.4259   -0.3921   14.9940 C   0  0  0  0  0  0  0  0  0  0  0  0
   35.8731    0.8758   14.7915 C   0  0  0  0  0  0  0  0  0  0  0  0
   36.0394    1.5107   13.5627 O   0  0  0  0  0  0  0  0  0  0  0  0
   35.1575    1.4940   15.8230 C   0  0  0  0  0  0  0  0  0  0  0  0
   34.9926    0.8430   17.0471 C   0  0  0  0  0  0  0  0  0  0  0  0
   35.5472   -0.4247   17.2582 C   0  0  0  0  0  0  0  0  0  0  0  0
   35.3031   -1.0558   18.4800 O   0  0  0  0  0  0  0  0  0  0  0  0
   36.0041   -2.2091   18.9320 C   0  0  0  0  0  0  0  0  0  0  0  0
   35.6495    2.4289   13.3840 H   0  0  0  0  0  0  0  0  0  0  0  0
   30.9737   -5.6784   16.7246 O   0  0  0  0  0  0  0  0  0  0  0  0
   32.2157   -5.1028   16.9829 C   0  0  0  0  0  0  0  0  0  0  0  0
   33.2138   -5.8250   17.6458 C   0  0  0  0  0  0  0  0  0  0  0  0
   34.4552   -5.2363   17.8995 C   0  0  0  0  0  0  0  0  0  0  0  0
   34.7228   -3.9148   17.4918 C   0  0  0  0  0  0  0  0  0  0  0  0
   33.7061   -3.1966   16.8314 C   0  0  0  0  0  0  0  0  0  0  0  0
   32.4661   -3.7901   16.5772 C   0  0  0  0  0  0  0  0  0  0  0  0
   30.7620   -6.6290   17.0051 H   0  0  0  0  0  0  0  0  0  0  0  0
   35.3805   -2.7345   20.2071 C   0  0  0  0  0  0  0  0  0  0  0  0
   34.0607   -2.3850   20.5354 C   0  0  0  0  0  0  0  0  0  0  0  0
   33.4895   -2.8180   21.7355 C   0  0  0  0  0  0  0  0  0  0  0  0
   34.2368   -3.6005   22.6356 C   0  0  0  0  0  0  0  0  0  0  0  0
   35.5561   -3.9364   22.3148 C   0  0  0  0  0  0  0  0  0  0  0  0
   36.1275   -3.5064   21.1147 C   0  0  0  0  0  0  0  0  0  0  0  0
   33.7105   -4.0585   23.8519 O   0  0  0  0  0  0  0  0  0  0  0  0
   33.4555   -3.2297   24.9838 C   0  0  0  0  0  0  0  0  0  0  0  0
   31.9516   -3.1889   25.2682 C   0  0  0  0  0  0  0  0  0  0  0  0
   31.5436   -1.9113   25.8953 N   0  0  0  0  0  0  0  0  0  0  0  0
   30.0659   -1.7396   25.8618 C   0  0  0  0  0  0  0  0  0  0  0  0
   29.3949   -2.1479   27.1804 C   0  0  0  0  0  0  0  0  0  0  0  0
   29.9086   -1.2934   28.3519 C   0  0  0  0  0  0  0  0  0  0  0  0
   31.3394   -0.7785   28.1239 C   0  0  0  0  0  0  0  0  0  0  0  0
   32.1394   -1.7510   27.2494 C   0  0  0  0  0  0  0  0  0  0  0  0
 13 14  1  0  0  0
 14 15  2  0  0  0
 15 16  1  0  0  0
 16 17  2  0  0  0
 17  1  1  0  0  0
  1  2  1  0  0  0
  2  3  1  0  0  0
  3  4  2  0  0  0
  4  5  1  0  0  0
  5  6  1  0  0  0
  5  7  2  0  0  0
  7  8  1  0  0  0
  8  9  2  0  0  0
  9 10  1  0  0  0
 10 11  1  0  0  0
 11 21  1  0  0  0
 21 22  2  0  0  0
 22 23  1  0  0  0
 23 24  2  0  0  0
 24 27  1  0  0  0
 27 28  1  0  0  0
 28 29  1  0  0  0
 29 30  1  0  0  0
 30 31  1  0  0  0
 31 32  1  0  0  0
 32 33  1  0  0  0
 33 34  1  0  0  0
 34 35  1  0  0  0
 24 25  1  0  0  0
 25 26  2  0  0  0
 17 18  1  0  0  0
 18 19  2  0  0  0
 19 14  1  0  0  0
 11  1  1  0  0  0
 26 21  1  0  0  0
  9  3  1  0  0  0
 35 30  1  0  0  0
 13 20  1  0  0  0
  6 12  1  0  0  0
M  END
> <minimizedAffinity>
-9.13694

$$$$
CMP_1


 35 39  0  0  0  0  0  0  0  0999 V2000
   37.7165   -1.1637   17.1210 C   0  0  0  0  0  0  0  0  0  0  0  0
   38.5102    0.0445   15.9965 S   0  0  0  0  0  0  0  0  0  0  0  0
   37.1017    1.1286   15.6770 C   0  0  0  0  0  0  0  0  0  0  0  0
   37.1646    1.9606   14.5507 C   0  0  0  0  0  0  0  0  0  0  0  0
   36.1016    2.8107   14.2323 C   0  0  0  0  0  0  0  0  0  0  0  0
   36.1913    3.6351   13.1128 O   0  0  0  0  0  0  0  0  0  0  0  0
   34.9581    2.8246   15.0388 C   0  0  0  0  0  0  0  0  0  0  0  0
   34.8788    1.9879   16.1537 C   0  0  0  0  0  0  0  0  0  0  0  0
   35.9412    1.1375   16.4810 C   0  0  0  0  0  0  0  0  0  0  0  0
   35.7868    0.2796   17.5722 O   0  0  0  0  0  0  0  0  0  0  0  0
   36.8569   -0.4402   18.1741 C   0  0  0  0  0  0  0  0  0  0  0  0
   35.4374    4.2610   12.8542 H   0  0  0  0  0  0  0  0  0  0  0  0
   35.0103   -5.5323   14.5732 O   0  0  0  0  0  0  0  0  0  0  0  0
   35.6740   -4.4681   15.1795 C   0  0  0  0  0  0  0  0  0  0  0  0
   36.8471   -4.6815   15.9114 C   0  0  0  0  0  0  0  0  0  0  0  0
   37.5031   -3.6059   16.5153 C   0  0  0  0  0  0  0  0  0  0  0  0
   36.9996   -2.2958   16.3959 C   0  0  0  0  0  0  0  0  0  0  0  0
   35.8134   -2.0962   15.6620 C   0  0  0  0  0  0  0  0  0  0  0  0
   35.1614   -3.1748   15.0570 C   0  0  0  0  0  0  0  0  0  0  0  0
   35.3578   -6.4818   14.6427 H   0  0  0  0  0  0  0  0  0  0  0  0
   36.3220   -1.4015   19.2136 C   0  0  0  0  0  0  0  0  0  0  0  0
   37.2123   -2.1874   19.9629 C   0  0  0  0  0  0  0  0  0  0  0  0
   36.7313   -3.1183   20.8880 C   0  0  0  0  0  0  0  0  0  0  0  0
   35.3460   -3.2871   21.0702 C   0  0  0  0  0  0  0  0  0  0  0  0
   34.4592   -2.5143   20.3134 C   0  0  0  0  0  0  0  0  0  0  0  0
   34.9385   -1.5818   19.3902 C   0  0  0  0  0  0  0  0  0  0  0  0
   34.8133   -4.2077   21.9841 O   0  0  0  0  0  0  0  0  0  0  0  0
   33.5438   -4.0720   22.6188 C   0  0  0  0  0  0  0  0  0  0  0  0
   33.7381   -3.7515   24.1033 C   0  0  0  0  0  0  0  0  0  0  0  0
   32.5475   -3.0912   24.6852 N   0  0  0  0  0  0  0  0  0  0  0  0
   32.7916   -2.6791   26.0941 C   0  0  0  0  0  0  0  0  0  0  0  0
   33.1849   -1.2006   26.2161 C   0  0  0  0  0  0  0  0  0  0  0  0
   32.0722   -0.2846   25.6784 C   0  0  0  0  0  0  0  0  0  0  0  0
   31.2223   -0.9636   24.5917 C   0  0  0  0  0  0  0  0  0  0  0  0
   32.0489   -1.9936   23.8130 C   0  0  0  0  0  0  0  0  0  0  0  0
 13 14  1  0  0  0
 14 15  2  0  0  0
 15 16  1  0  0  0
 16 17  2  0  0  0
 17  1  1  0  0  0
  1  2  1  0  0  0
  2  3  1  0  0  0
  3  4  2  0  0  0
  4  5  1  0  0  0
  5  6  1  0  0  0
  5  7  2  0  0  0
  7  8  1  0  0  0
  8  9  2  0  0  0
  9 10  1  0  0  0
 10 11  1  0  0  0
 11 21  1  0  0  0
 21 22  2  0  0  0
 22 23  1  0  0  0
 23 24  2  0  0  0
 24 27  1  0  0  0
 27 28  1  0  0  0
 28 29  1  0  0  0
 29 30  1  0  0  0
 30 31  1  0  0  0
 31 32  1  0  0  0
 32 33  1  0  0  0
 33 34  1  0  0  0
 34 35  1  0  0  0
 24 25  1  0  0  0
 25 26  2  0  0  0
 17 18  1  0  0  0
 18 19  2  0  0  0
 19 14  1  0  0  0
 11  1  1  0  0  0
 26 21  1  0  0  0
  9  3  1  0  0  0
 35 30  1  0  0  0
 13 20  1  0  0  0
  6 12  1  0  0  0
M  END
> <minimizedAffinity>
-9.09744

$$$$
CMP_1


 35 39  0  0  0  0  0  0  0  0999 V2000
   33.3041   -2.8276   18.4369 C   0  0  0  0  0  0  0  0  0  0  0  0
   32.8191   -3.0918   16.6906 S   0  0  0  0  0  0  0  0  0  0  0  0
   33.4194   -4.7798   16.4637 C   0  0  0  0  0  0  0  0  0  0  0  0
   33.6077   -5.2312   15.1501 C   0  0  0  0  0  0  0  0  0  0  0  0
   34.0888   -6.5199   14.9013 C   0  0  0  0  0  0  0  0  0  0  0  0
   34.2590   -6.9491   13.5869 O   0  0  0  0  0  0  0  0  0  0  0  0
   34.3961   -7.3652   15.9733 C   0  0  0  0  0  0  0  0  0  0  0  0
   34.2274   -6.9194   17.2857 C   0  0  0  0  0  0  0  0  0  0  0  0
   33.7419   -5.6319   17.5420 C   0  0  0  0  0  0  0  0  0  0  0  0
   33.6473   -5.2158   18.8718 O   0  0  0  0  0  0  0  0  0  0  0  0
   32.9390   -4.0550   19.2922 C   0  0  0  0  0  0  0  0  0  0  0  0
   34.6075   -7.8764   13.3735 H   0  0  0  0  0  0  0  0  0  0  0  0
   38.7300   -1.0192   18.8700 O   0  0  0  0  0  0  0  0  0  0  0  0
   37.4135   -1.4651   18.7774 C   0  0  0  0  0  0  0  0  0  0  0  0
   37.0954   -2.6017   18.0263 C   0  0  0  0  0  0  0  0  0  0  0  0
   35.7710   -3.0385   17.9407 C   0  0  0  0  0  0  0  0  0  0  0  0
   34.7401   -2.3482   18.6077 C   0  0  0  0  0  0  0  0  0  0  0  0
   35.0736   -1.2010   19.3548 C   0  0  0  0  0  0  0  0  0  0  0  0
   36.4004   -0.7687   19.4400 C   0  0  0  0  0  0  0  0  0  0  0  0
   39.4873   -1.5035   18.4020 H   0  0  0  0  0  0  0  0  0  0  0  0
   33.1787   -3.8001   20.7647 C   0  0  0  0  0  0  0  0  0  0  0  0
   34.3410   -4.2928   21.3794 C   0  0  0  0  0  0  0  0  0  0  0  0
   34.5503   -4.1122   22.7496 C   0  0  0  0  0  0  0  0  0  0  0  0
   33.5904   -3.4437   23.5322 C   0  0  0  0  0  0  0  0  0  0  0  0
   32.4260   -2.9656   22.9223 C   0  0  0  0  0  0  0  0  0  0  0  0
   32.2166   -3.1432   21.5525 C   0  0  0  0  0  0  0  0  0  0  0  0
   33.7525   -3.2381   24.9098 O   0  0  0  0  0  0  0  0  0  0  0  0
   32.7081   -3.3621   25.8725 C   0  0  0  0  0  0  0  0  0  0  0  0
   32.7230   -2.1532   26.8120 C   0  0  0  0  0  0  0  0  0  0  0  0
   33.4684   -1.0131   26.2317 N   0  0  0  0  0  0  0  0  0  0  0  0
   32.5455   -0.0151   25.6262 C   0  0  0  0  0  0  0  0  0  0  0  0
   32.2522    1.1626   26.5656 C   0  0  0  0  0  0  0  0  0  0  0  0
   33.5419    1.9202   26.9245 C   0  0  0  0  0  0  0  0  0  0  0  0
   34.7879    1.0204   26.8758 C   0  0  0  0  0  0  0  0  0  0  0  0
   34.4286   -0.4323   27.2088 C   0  0  0  0  0  0  0  0  0  0  0  0
 13 14  1  0  0  0
 14 15  2  0  0  0
 15 16  1  0  0  0
 16 17  2  0  0  0
 17  1  1  0  0  0
  1  2  1  0  0  0
  2  3  1  0  0  0
  3  4  2  0  0  0
  4  5  1  0  0  0
  5  6  1  0  0  0
  5  7  2  0  0  0
  7  8  1  0  0  0
  8  9  2  0  0  0
  9 10  1  0  0  0
 10 11  1  0  0  0
 11 21  1  0  0  0
 21 22  2  0  0  0
 22 23  1  0  0  0
 23 24  2  0  0  0
 24 27  1  0  0  0
 27 28  1  0  0  0
 28 29  1  0  0  0
 29 30  1  0  0  0
 30 31  1  0  0  0
 31 32  1  0  0  0
 32 33  1  0  0  0
 33 34  1  0  0  0
 34 35  1  0  0  0
 24 25  1  0  0  0
 25 26  2  0  0  0
 17 18  1  0  0  0
 18 19  2  0  0  0
 19 14  1  0  0  0
 11  1  1  0  0  0
 26 21  1  0  0  0
  9  3  1  0  0  0
 35 30  1  0  0  0
 13 20  1  0  0  0
  6 12  1  0  0  0
M  END
> <minimizedAffinity>
-8.88397

$$$$
CMP_1


 35 39  0  0  0  0  0  0  0  0999 V2000
   36.7204   -2.9829   17.5959 C   0  0  0  0  0  0  0  0  0  0  0  0
   35.9151   -4.0685   18.8318 S   0  0  0  0  0  0  0  0  0  0  0  0
   34.1964   -3.5651   18.6000 C   0  0  0  0  0  0  0  0  0  0  0  0
   33.2884   -3.8628   19.6255 C   0  0  0  0  0  0  0  0  0  0  0  0
   31.9465   -3.4849   19.5213 C   0  0  0  0  0  0  0  0  0  0  0  0
   31.0610   -3.8001   20.5496 O   0  0  0  0  0  0  0  0  0  0  0  0
   31.5061   -2.7930   18.3875 C   0  0  0  0  0  0  0  0  0  0  0  0
   32.4061   -2.4774   17.3678 C   0  0  0  0  0  0  0  0  0  0  0  0
   33.7500   -2.8566   17.4634 C   0  0  0  0  0  0  0  0  0  0  0  0
   34.6196   -2.4652   16.4430 O   0  0  0  0  0  0  0  0  0  0  0  0
   35.9317   -2.9896   16.2733 C   0  0  0  0  0  0  0  0  0  0  0  0
   30.0830   -3.5386   20.5050 H   0  0  0  0  0  0  0  0  0  0  0  0
   38.0237    2.3064   19.3914 O   0  0  0  0  0  0  0  0  0  0  0  0
   37.7095    1.0168   18.9686 C   0  0  0  0  0  0  0  0  0  0  0  0
   38.6659    0.2225   18.3269 C   0  0  0  0  0  0  0  0  0  0  0  0
   38.3382   -1.0692   17.9070 C   0  0  0  0  0  0  0  0  0  0  0  0
   37.0483   -1.5919   18.1239 C   0  0  0  0  0  0  0  0  0  0  0  0
   36.0929   -0.7786   18.7650 C   0  0  0  0  0  0  0  0  0  0  0  0
   36.4254    0.5125   19.1860 C   0  0  0  0  0  0  0  0  0  0  0  0
   38.9467    2.7001   19.2495 H   0  0  0  0  0  0  0  0  0  0  0  0
   36.6615   -2.2323   15.1848 C   0  0  0  0  0  0  0  0  0  0  0  0
   37.8160   -2.7818   14.6044 C   0  0  0  0  0  0  0  0  0  0  0  0
   38.5312   -2.0705   13.6367 C   0  0  0  0  0  0  0  0  0  0  0  0
   38.1079   -0.7878   13.2414 C   0  0  0  0  0  0  0  0  0  0  0  0
   36.9659   -0.2348   13.8301 C   0  0  0  0  0  0  0  0  0  0  0  0
   36.2488   -0.9455   14.7956 C   0  0  0  0  0  0  0  0  0  0  0  0
   38.7906   -0.0335   12.2764 O   0  0  0  0  0  0  0  0  0  0  0  0
   39.5908    1.1108   12.5646 C   0  0  0  0  0  0  0  0  0  0  0  0
   38.8019    2.3861   12.2554 C   0  0  0  0  0  0  0  0  0  0  0  0
   38.6850    3.2634   13.4424 N   0  0  0  0  0  0  0  0  0  0  0  0
   37.3403    3.8964   13.5171 C   0  0  0  0  0  0  0  0  0  0  0  0
   36.3892    3.1502   14.4627 C   0  0  0  0  0  0  0  0  0  0  0  0
   36.9415    3.1246   15.8981 C   0  0  0  0  0  0  0  0  0  0  0  0
   38.4770    3.1928   15.9411 C   0  0  0  0  0  0  0  0  0  0  0  0
   39.0894    2.5566   14.6878 C   0  0  0  0  0  0  0  0  0  0  0  0
 13 14  1  0  0  0
 14 15  2  0  0  0
 15 16  1  0  0  0
 16 17  2  0  0  0
 17  1  1  0  0  0
  1  2  1  0  0  0
  2  3  1  0  0  0
  3  4  2  0  0  0
  4  5  1  0  0  0
  5  6  1  0  0  0
  5  7  2  0  0  0
  7  8  1  0  0  0
  8  9  2  0  0  0
  9 10  1  0  0  0
 10 11  1  0  0  0
 11 21  1  0  0  0
 21 22  2  0  0  0
 22 23  1  0  0  0
 23 24  2  0  0  0
 24 27  1  0  0  0
 27 28  1  0  0  0
 28 29  1  0  0  0
 29 30  1  0  0  0
 30 31  1  0  0  0
 31 32  1  0  0  0
 32 33  1  0  0  0
 33 34  1  0  0  0
 34 35  1  0  0  0
 24 25  1  0  0  0
 25 26  2  0  0  0
 17 18  1  0  0  0
 18 19  2  0  0  0
 19 14  1  0  0  0
 11  1  1  0  0  0
 26 21  1  0  0  0
  9  3  1  0  0  0
 35 30  1  0  0  0
 13 20  1  0  0  0
  6 12  1  0  0  0
M  END
> <minimizedAffinity>
-8.75005

$$$$
CMP_1


 35 39  0  0  0  0  0  0  0  0999 V2000
   33.3204   -2.8909   18.3927 C   0  0  0  0  0  0  0  0  0  0  0  0
   32.8640   -3.1873   16.6439 S   0  0  0  0  0  0  0  0  0  0  0  0
   33.4626   -4.8811   16.4596 C   0  0  0  0  0  0  0  0  0  0  0  0
   33.6716   -5.3583   15.1583 C   0  0  0  0  0  0  0  0  0  0  0  0
   34.1527   -6.6530   14.9425 C   0  0  0  0  0  0  0  0  0  0  0  0
   34.3436   -7.1079   13.6397 O   0  0  0  0  0  0  0  0  0  0  0  0
   34.4392   -7.4783   16.0356 C   0  0  0  0  0  0  0  0  0  0  0  0
   34.2499   -7.0068   17.3361 C   0  0  0  0  0  0  0  0  0  0  0  0
   33.7643   -5.7132   17.5594 C   0  0  0  0  0  0  0  0  0  0  0  0
   33.6486   -5.2713   18.8792 O   0  0  0  0  0  0  0  0  0  0  0  0
   32.9371   -4.1006   19.2651 C   0  0  0  0  0  0  0  0  0  0  0  0
   34.6926   -8.0402   13.4501 H   0  0  0  0  0  0  0  0  0  0  0  0
   38.7423   -1.0849   18.8823 O   0  0  0  0  0  0  0  0  0  0  0  0
   37.4267   -1.5303   18.7760 C   0  0  0  0  0  0  0  0  0  0  0  0
   37.1152   -2.6633   18.0167 C   0  0  0  0  0  0  0  0  0  0  0  0
   35.7916   -3.0996   17.9174 C   0  0  0  0  0  0  0  0  0  0  0  0
   34.7548   -2.4125   18.5785 C   0  0  0  0  0  0  0  0  0  0  0  0
   35.0818   -1.2688   19.3339 C   0  0  0  0  0  0  0  0  0  0  0  0
   36.4078   -0.8370   19.4329 C   0  0  0  0  0  0  0  0  0  0  0  0
   39.5037   -1.5671   18.4188 H   0  0  0  0  0  0  0  0  0  0  0  0
   33.1528   -3.8180   20.7363 C   0  0  0  0  0  0  0  0  0  0  0  0
   34.2612   -4.3693   21.3989 C   0  0  0  0  0  0  0  0  0  0  0  0
   34.4443   -4.1618   22.7691 C   0  0  0  0  0  0  0  0  0  0  0  0
   33.5111   -3.4067   23.5036 C   0  0  0  0  0  0  0  0  0  0  0  0
   32.3995   -2.8696   22.8461 C   0  0  0  0  0  0  0  0  0  0  0  0
   32.2164   -3.0741   21.4763 C   0  0  0  0  0  0  0  0  0  0  0  0
   33.6487   -3.1709   24.8790 O   0  0  0  0  0  0  0  0  0  0  0  0
   33.0591   -2.0734   25.5725 C   0  0  0  0  0  0  0  0  0  0  0  0
   32.0023   -2.5877   26.5538 C   0  0  0  0  0  0  0  0  0  0  0  0
   30.9098   -1.6080   26.7509 N   0  0  0  0  0  0  0  0  0  0  0  0
   29.6133   -2.1341   26.2443 C   0  0  0  0  0  0  0  0  0  0  0  0
   28.7453   -2.7351   27.3582 C   0  0  0  0  0  0  0  0  0  0  0  0
   28.4033   -1.6807   28.4247 C   0  0  0  0  0  0  0  0  0  0  0  0
   29.4722   -0.5804   28.5309 C   0  0  0  0  0  0  0  0  0  0  0  0
   30.8564   -1.1226   28.1564 C   0  0  0  0  0  0  0  0  0  0  0  0
 13 14  1  0  0  0
 14 15  2  0  0  0
 15 16  1  0  0  0
 16 17  2  0  0  0
 17  1  1  0  0  0
  1  2  1  0  0  0
  2  3  1  0  0  0
  3  4  2  0  0  0
  4  5  1  0  0  0
  5  6  1  0  0  0
  5  7  2  0  0  0
  7  8  1  0  0  0
  8  9  2  0  0  0
  9 10  1  0  0  0
 10 11  1  0  0  0
 11 21  1  0  0  0
 21 22  2  0  0  0
 22 23  1  0  0  0
 23 24  2  0  0  0
 24 27  1  0  0  0
 27 28  1  0  0  0
 28 29  1  0  0  0
 29 30  1  0  0  0
 30 31  1  0  0  0
 31 32  1  0  0  0
 32 33  1  0  0  0
 33 34  1  0  0  0
 34 35  1  0  0  0
 24 25  1  0  0  0
 25 26  2  0  0  0
 17 18  1  0  0  0
 18 19  2  0  0  0
 19 14  1  0  0  0
 11  1  1  0  0  0
 26 21  1  0  0  0
  9  3  1  0  0  0
 35 30  1  0  0  0
 13 20  1  0  0  0
  6 12  1  0  0  0
M  END
> <minimizedAffinity>
-8.55968

$$$$
CMP_1


 35 39  0  0  0  0  0  0  0  0999 V2000
   35.4465   -1.2361   16.6624 C   0  0  0  0  0  0  0  0  0  0  0  0
   34.1810   -2.5577   16.7423 S   0  0  0  0  0  0  0  0  0  0  0  0
   34.3071   -2.9897   18.4912 C   0  0  0  0  0  0  0  0  0  0  0  0
   33.7939   -4.2308   18.8924 C   0  0  0  0  0  0  0  0  0  0  0  0
   33.8756   -4.6381   20.2272 C   0  0  0  0  0  0  0  0  0  0  0  0
   33.3501   -5.8723   20.6034 O   0  0  0  0  0  0  0  0  0  0  0  0
   34.4851   -3.8044   21.1714 C   0  0  0  0  0  0  0  0  0  0  0  0
   35.0139   -2.5732   20.7789 C   0  0  0  0  0  0  0  0  0  0  0  0
   34.9316   -2.1571   19.4451 C   0  0  0  0  0  0  0  0  0  0  0  0
   35.5278   -0.9436   19.0951 O   0  0  0  0  0  0  0  0  0  0  0  0
   35.3038   -0.2764   17.8581 C   0  0  0  0  0  0  0  0  0  0  0  0
   33.3952   -6.1969   21.5624 H   0  0  0  0  0  0  0  0  0  0  0  0
   40.6913   -3.3770   15.7638 O   0  0  0  0  0  0  0  0  0  0  0  0
   39.4228   -2.8484   15.9922 C   0  0  0  0  0  0  0  0  0  0  0  0
   38.5078   -3.5164   16.8131 C   0  0  0  0  0  0  0  0  0  0  0  0
   37.2383   -2.9762   17.0339 C   0  0  0  0  0  0  0  0  0  0  0  0
   36.8613   -1.7558   16.4401 C   0  0  0  0  0  0  0  0  0  0  0  0
   37.7901   -1.0974   15.6099 C   0  0  0  0  0  0  0  0  0  0  0  0
   39.0603   -1.6399   15.3935 C   0  0  0  0  0  0  0  0  0  0  0  0
   40.9845   -4.2510   16.1848 H   0  0  0  0  0  0  0  0  0  0  0  0
   36.2287    0.9149   17.7308 C   0  0  0  0  0  0  0  0  0  0  0  0
   37.2346    1.1244   18.6878 C   0  0  0  0  0  0  0  0  0  0  0  0
   38.0614    2.2490   18.6138 C   0  0  0  0  0  0  0  0  0  0  0  0
   37.8863    3.1922   17.5840 C   0  0  0  0  0  0  0  0  0  0  0  0
   36.8749    2.9906   16.6391 C   0  0  0  0  0  0  0  0  0  0  0  0
   36.0494    1.8659   16.7104 C   0  0  0  0  0  0  0  0  0  0  0  0
   38.6881    4.3366   17.4667 O   0  0  0  0  0  0  0  0  0  0  0  0
   39.0864    5.1584   18.5616 C   0  0  0  0  0  0  0  0  0  0  0  0
   40.0361    6.2538   18.0689 C   0  0  0  0  0  0  0  0  0  0  0  0
   39.8345    7.5269   18.7974 N   0  0  0  0  0  0  0  0  0  0  0  0
   38.9685    8.4600   18.0269 C   0  0  0  0  0  0  0  0  0  0  0  0
   37.5045    8.4203   18.4858 C   0  0  0  0  0  0  0  0  0  0  0  0
   37.3757    8.8237   19.9647 C   0  0  0  0  0  0  0  0  0  0  0  0
   38.6431    8.5064   20.7755 C   0  0  0  0  0  0  0  0  0  0  0  0
   39.3766    7.2923   20.1937 C   0  0  0  0  0  0  0  0  0  0  0  0
 13 14  1  0  0  0
 14 15  2  0  0  0
 15 16  1  0  0  0
 16 17  2  0  0  0
 17  1  1  0  0  0
  1  2  1  0  0  0
  2  3  1  0  0  0
  3  4  2  0  0  0
  4  5  1  0  0  0
  5  6  1  0  0  0
  5  7  2  0  0  0
  7  8  1  0  0  0
  8  9  2  0  0  0
  9 10  1  0  0  0
 10 11  1  0  0  0
 11 21  1  0  0  0
 21 22  2  0  0  0
 22 23  1  0  0  0
 23 24  2  0  0  0
 24 27  1  0  0  0
 27 28  1  0  0  0
 28 29  1  0  0  0
 29 30  1  0  0  0
 30 31  1  0  0  0
 31 32  1  0  0  0
 32 33  1  0  0  0
 33 34  1  0  0  0
 34 35  1  0  0  0
 24 25  1  0  0  0
 25 26  2  0  0  0
 17 18  1  0  0  0
 18 19  2  0  0  0
 19 14  1  0  0  0
 11  1  1  0  0  0
 26 21  1  0  0  0
  9  3  1  0  0  0
 35 30  1  0  0  0
 13 20  1  0  0  0
  6 12  1  0  0  0
M  END
> <minimizedAffinity>
-8.51421

$$$$
CMP_1


 35 39  0  0  0  0  0  0  0  0999 V2000
   35.5255   -1.7458   16.5652 C   0  0  0  0  0  0  0  0  0  0  0  0
   34.3873   -3.1720   16.4078 S   0  0  0  0  0  0  0  0  0  0  0  0
   34.5074   -3.8389   18.0817 C   0  0  0  0  0  0  0  0  0  0  0  0
   34.1020   -5.1655   18.2831 C   0  0  0  0  0  0  0  0  0  0  0  0
   34.1864   -5.7523   19.5491 C   0  0  0  0  0  0  0  0  0  0  0  0
   33.7687   -7.0695   19.7263 O   0  0  0  0  0  0  0  0  0  0  0  0
   34.6905   -5.0128   20.6249 C   0  0  0  0  0  0  0  0  0  0  0  0
   35.1121   -3.6959   20.4313 C   0  0  0  0  0  0  0  0  0  0  0  0
   35.0263   -3.1006   19.1675 C   0  0  0  0  0  0  0  0  0  0  0  0
   35.5155   -1.8013   19.0162 O   0  0  0  0  0  0  0  0  0  0  0  0
   35.2626   -0.9851   17.8780 C   0  0  0  0  0  0  0  0  0  0  0  0
   33.8188   -7.5238   20.6307 H   0  0  0  0  0  0  0  0  0  0  0  0
   40.9697   -3.2672   15.5926 O   0  0  0  0  0  0  0  0  0  0  0  0
   39.6518   -2.8894   15.8397 C   0  0  0  0  0  0  0  0  0  0  0  0
   38.8018   -3.7103   16.5887 C   0  0  0  0  0  0  0  0  0  0  0  0
   37.4818   -3.3205   16.8292 C   0  0  0  0  0  0  0  0  0  0  0  0
   36.9880   -2.1004   16.3274 C   0  0  0  0  0  0  0  0  0  0  0  0
   37.8528   -1.2868   15.5687 C   0  0  0  0  0  0  0  0  0  0  0  0
   39.1737   -1.6792   15.3325 C   0  0  0  0  0  0  0  0  0  0  0  0
   41.3464   -4.1382   15.9480 H   0  0  0  0  0  0  0  0  0  0  0  0
   36.0753    0.2894   17.9567 C   0  0  0  0  0  0  0  0  0  0  0  0
   35.8272    1.3337   17.0514 C   0  0  0  0  0  0  0  0  0  0  0  0
   36.6052    2.4947   17.0768 C   0  0  0  0  0  0  0  0  0  0  0  0
   37.6561    2.6248   18.0038 C   0  0  0  0  0  0  0  0  0  0  0  0
   37.9122    1.5783   18.8959 C   0  0  0  0  0  0  0  0  0  0  0  0
   37.1339    0.4185   18.8734 C   0  0  0  0  0  0  0  0  0  0  0  0
   38.4658    3.7678   18.0689 O   0  0  0  0  0  0  0  0  0  0  0  0
   38.7394    4.6266   16.9642 C   0  0  0  0  0  0  0  0  0  0  0  0
   38.3828    6.0702   17.3291 C   0  0  0  0  0  0  0  0  0  0  0  0
   39.5855    6.8693   17.6566 N   0  0  0  0  0  0  0  0  0  0  0  0
   39.5375    7.3704   19.0569 C   0  0  0  0  0  0  0  0  0  0  0  0
   40.3394    6.4909   20.0257 C   0  0  0  0  0  0  0  0  0  0  0  0
   41.8249    6.4409   19.6292 C   0  0  0  0  0  0  0  0  0  0  0  0
   42.0405    6.6484   18.1210 C   0  0  0  0  0  0  0  0  0  0  0  0
   40.8370    6.1384   17.3198 C   0  0  0  0  0  0  0  0  0  0  0  0
 13 14  1  0  0  0
 14 15  2  0  0  0
 15 16  1  0  0  0
 16 17  2  0  0  0
 17  1  1  0  0  0
  1  2  1  0  0  0
  2  3  1  0  0  0
  3  4  2  0  0  0
  4  5  1  0  0  0
  5  6  1  0  0  0
  5  7  2  0  0  0
  7  8  1  0  0  0
  8  9  2  0  0  0
  9 10  1  0  0  0
 10 11  1  0  0  0
 11 21  1  0  0  0
 21 22  2  0  0  0
 22 23  1  0  0  0
 23 24  2  0  0  0
 24 27  1  0  0  0
 27 28  1  0  0  0
 28 29  1  0  0  0
 29 30  1  0  0  0
 30 31  1  0  0  0
 31 32  1  0  0  0
 32 33  1  0  0  0
 33 34  1  0  0  0
 34 35  1  0  0  0
 24 25  1  0  0  0
 25 26  2  0  0  0
 17 18  1  0  0  0
 18 19  2  0  0  0
 19 14  1  0  0  0
 11  1  1  0  0  0
 26 21  1  0  0  0
  9  3  1  0  0  0
 35 30  1  0  0  0
 13 20  1  0  0  0
  6 12  1  0  0  0
M  END
> <minimizedAffinity>
-8.51251

$$$$
CMP_1


 35 39  0  0  0  0  0  0  0  0999 V2000
   37.2952    0.7175   18.3145 C   0  0  0  0  0  0  0  0  0  0  0  0
   38.0052    2.4053   18.2746 S   0  0  0  0  0  0  0  0  0  0  0  0
   37.1152    3.0726   16.8520 C   0  0  0  0  0  0  0  0  0  0  0  0
   37.6466    4.2099   16.2284 C   0  0  0  0  0  0  0  0  0  0  0  0
   37.0203    4.7677   15.1100 C   0  0  0  0  0  0  0  0  0  0  0  0
   37.5624    5.9038   14.5130 O   0  0  0  0  0  0  0  0  0  0  0  0
   35.8573    4.1798   14.6002 C   0  0  0  0  0  0  0  0  0  0  0  0
   35.3290    3.0372   15.2042 C   0  0  0  0  0  0  0  0  0  0  0  0
   35.9483    2.4760   16.3270 C   0  0  0  0  0  0  0  0  0  0  0  0
   35.4121    1.3003   16.8568 O   0  0  0  0  0  0  0  0  0  0  0  0
   35.7675    0.7678   18.1280 C   0  0  0  0  0  0  0  0  0  0  0  0
   37.1333    6.3308   13.7003 H   0  0  0  0  0  0  0  0  0  0  0  0
   40.1199   -2.8447   14.8172 O   0  0  0  0  0  0  0  0  0  0  0  0
   39.4216   -1.9864   15.6636 C   0  0  0  0  0  0  0  0  0  0  0  0
   39.0104   -0.7247   15.2206 C   0  0  0  0  0  0  0  0  0  0  0  0
   38.3112    0.1273   16.0794 C   0  0  0  0  0  0  0  0  0  0  0  0
   38.0073   -0.2682   17.3967 C   0  0  0  0  0  0  0  0  0  0  0  0
   38.4337   -1.5388   17.8320 C   0  0  0  0  0  0  0  0  0  0  0  0
   39.1309   -2.3893   16.9688 C   0  0  0  0  0  0  0  0  0  0  0  0
   40.3447   -2.5819   13.8646 H   0  0  0  0  0  0  0  0  0  0  0  0
   35.1368   -0.5947   18.3197 C   0  0  0  0  0  0  0  0  0  0  0  0
   34.3129   -1.1310   17.3172 C   0  0  0  0  0  0  0  0  0  0  0  0
   33.6802   -2.3636   17.5025 C   0  0  0  0  0  0  0  0  0  0  0  0
   33.8527   -3.0764   18.7037 C   0  0  0  0  0  0  0  0  0  0  0  0
   34.6621   -2.5352   19.7079 C   0  0  0  0  0  0  0  0  0  0  0  0
   35.2970   -1.3046   19.5231 C   0  0  0  0  0  0  0  0  0  0  0  0
   33.2394   -4.3153   18.9389 O   0  0  0  0  0  0  0  0  0  0  0  0
   33.8375   -5.5783   18.6560 C   0  0  0  0  0  0  0  0  0  0  0  0
   33.4765   -6.0159   17.2339 C   0  0  0  0  0  0  0  0  0  0  0  0
   34.6638   -6.0525   16.3502 N   0  0  0  0  0  0  0  0  0  0  0  0
   34.3175   -5.6455   14.9613 C   0  0  0  0  0  0  0  0  0  0  0  0
   34.6415   -4.1719   14.6806 C   0  0  0  0  0  0  0  0  0  0  0  0
   36.1436   -3.8910   14.8576 C   0  0  0  0  0  0  0  0  0  0  0  0
   36.8072   -4.8428   15.8665 C   0  0  0  0  0  0  0  0  0  0  0  0
   35.8046   -5.2962   16.9340 C   0  0  0  0  0  0  0  0  0  0  0  0
 13 14  1  0  0  0
 14 15  2  0  0  0
 15 16  1  0  0  0
 16 17  2  0  0  0
 17  1  1  0  0  0
  1  2  1  0  0  0
  2  3  1  0  0  0
  3  4  2  0  0  0
  4  5  1  0  0  0
  5  6  1  0  0  0
  5  7  2  0  0  0
  7  8  1  0  0  0
  8  9  2  0  0  0
  9 10  1  0  0  0
 10 11  1  0  0  0
 11 21  1  0  0  0
 21 22  2  0  0  0
 22 23  1  0  0  0
 23 24  2  0  0  0
 24 27  1  0  0  0
 27 28  1  0  0  0
 28 29  1  0  0  0
 29 30  1  0  0  0
 30 31  1  0  0  0
 31 32  1  0  0  0
 32 33  1  0  0  0
 33 34  1  0  0  0
 34 35  1  0  0  0
 24 25  1  0  0  0
 25 26  2  0  0  0
 17 18  1  0  0  0
 18 19  2  0  0  0
 19 14  1  0  0  0
 11  1  1  0  0  0
 26 21  1  0  0  0
  9  3  1  0  0  0
 35 30  1  0  0  0
 13 20  1  0  0  0
  6 12  1  0  0  0
M  END
> <minimizedAffinity>
-8.36500

$$$$
CMP_1


 35 39  0  0  0  0  0  0  0  0999 V2000
   31.2277   -0.6047   27.6378 C   0  0  0  0  0  0  0  0  0  0  0  0
   30.0657    0.2768   26.5406 S   0  0  0  0  0  0  0  0  0  0  0  0
   28.6431   -0.6877   27.0576 C   0  0  0  0  0  0  0  0  0  0  0  0
   27.3972   -0.0541   27.1433 C   0  0  0  0  0  0  0  0  0  0  0  0
   26.2502   -0.7888   27.4584 C   0  0  0  0  0  0  0  0  0  0  0  0
   25.0170   -0.1441   27.5262 O   0  0  0  0  0  0  0  0  0  0  0  0
   26.3502   -2.1654   27.6957 C   0  0  0  0  0  0  0  0  0  0  0  0
   27.5948   -2.7977   27.6371 C   0  0  0  0  0  0  0  0  0  0  0  0
   28.7502   -2.0654   27.3401 C   0  0  0  0  0  0  0  0  0  0  0  0
   29.9871   -2.7275   27.3873 O   0  0  0  0  0  0  0  0  0  0  0  0
   31.2750   -2.1095   27.2741 C   0  0  0  0  0  0  0  0  0  0  0  0
   24.1670   -0.6496   27.7460 H   0  0  0  0  0  0  0  0  0  0  0  0
   36.5025    1.6254   27.5687 O   0  0  0  0  0  0  0  0  0  0  0  0
   35.2163    1.0913   27.5942 C   0  0  0  0  0  0  0  0  0  0  0  0
   34.2926    1.4688   26.6162 C   0  0  0  0  0  0  0  0  0  0  0  0
   32.9987    0.9409   26.6284 C   0  0  0  0  0  0  0  0  0  0  0  0
   32.6069    0.0303   27.6305 C   0  0  0  0  0  0  0  0  0  0  0  0
   33.5492   -0.3547   28.6006 C   0  0  0  0  0  0  0  0  0  0  0  0
   34.8418    0.1769   28.5863 C   0  0  0  0  0  0  0  0  0  0  0  0
   37.1965    1.3676   28.2605 H   0  0  0  0  0  0  0  0  0  0  0  0
   31.8731   -2.3899   25.9068 C   0  0  0  0  0  0  0  0  0  0  0  0
   31.3826   -1.7586   24.7500 C   0  0  0  0  0  0  0  0  0  0  0  0
   31.9671   -2.0069   23.5056 C   0  0  0  0  0  0  0  0  0  0  0  0
   33.0472   -2.8871   23.3892 C   0  0  0  0  0  0  0  0  0  0  0  0
   33.5420   -3.5227   24.5424 C   0  0  0  0  0  0  0  0  0  0  0  0
   32.9578   -3.2762   25.7875 C   0  0  0  0  0  0  0  0  0  0  0  0
   33.5950   -3.1023   22.1168 O   0  0  0  0  0  0  0  0  0  0  0  0
   33.4020   -4.2835   21.3425 C   0  0  0  0  0  0  0  0  0  0  0  0
   33.5178   -3.9625   19.8420 C   0  0  0  0  0  0  0  0  0  0  0  0
   32.2361   -3.6538   19.1673 N   0  0  0  0  0  0  0  0  0  0  0  0
   32.3214   -2.5333   18.2114 C   0  0  0  0  0  0  0  0  0  0  0  0
   31.0480   -2.4824   17.3611 C   0  0  0  0  0  0  0  0  0  0  0  0
   29.8090   -2.3584   18.2565 C   0  0  0  0  0  0  0  0  0  0  0  0
   29.7892   -3.4612   19.3222 C   0  0  0  0  0  0  0  0  0  0  0  0
   31.1078   -3.4790   20.1030 C   0  0  0  0  0  0  0  0  0  0  0  0
 13 14  1  0  0  0
 14 15  2  0  0  0
 15 16  1  0  0  0
 16 17  2  0  0  0
 17  1  1  0  0  0
  1  2  1  0  0  0
  2  3  1  0  0  0
  3  4  2  0  0  0
  4  5  1  0  0  0
  5  6  1  0  0  0
  5  7  2  0  0  0
  7  8  1  0  0  0
  8  9  2  0  0  0
  9 10  1  0  0  0
 10 11  1  0  0  0
 11 21  1  0  0  0
 21 22  2  0  0  0
 22 23  1  0  0  0
 23 24  2  0  0  0
 24 27  1  0  0  0
 27 28  1  0  0  0
 28 29  1  0  0  0
 29 30  1  0  0  0
 30 31  1  0  0  0
 31 32  1  0  0  0
 32 33  1  0  0  0
 33 34  1  0  0  0
 34 35  1  0  0  0
 24 25  1  0  0  0
 25 26  2  0  0  0
 17 18  1  0  0  0
 18 19  2  0  0  0
 19 14  1  0  0  0
 11  1  1  0  0  0
 26 21  1  0  0  0
  9  3  1  0  0  0
 35 30  1  0  0  0
 13 20  1  0  0  0
  6 12  1  0  0  0
M  END
> <minimizedAffinity>
-11.58051

$$$$
CMP_1


 35 39  0  0  0  0  0  0  0  0999 V2000
   31.2169   -0.5871   27.6844 C   0  0  0  0  0  0  0  0  0  0  0  0
   30.0423    0.3297   26.6304 S   0  0  0  0  0  0  0  0  0  0  0  0
   28.6243   -0.6463   27.1381 C   0  0  0  0  0  0  0  0  0  0  0  0
   27.3816   -0.0125   27.2601 C   0  0  0  0  0  0  0  0  0  0  0  0
   26.2369   -0.7536   27.5689 C   0  0  0  0  0  0  0  0  0  0  0  0
   25.0066   -0.1081   27.6732 O   0  0  0  0  0  0  0  0  0  0  0  0
   26.3362   -2.1369   27.7634 C   0  0  0  0  0  0  0  0  0  0  0  0
   27.5780   -2.7702   27.6685 C   0  0  0  0  0  0  0  0  0  0  0  0
   28.7313   -2.0321   27.3775 C   0  0  0  0  0  0  0  0  0  0  0  0
   29.9668   -2.6984   27.3876 O   0  0  0  0  0  0  0  0  0  0  0  0
   31.2549   -2.0805   27.2751 C   0  0  0  0  0  0  0  0  0  0  0  0
   24.1583   -0.6178   27.8896 H   0  0  0  0  0  0  0  0  0  0  0  0
   36.4975    1.6292   27.6168 O   0  0  0  0  0  0  0  0  0  0  0  0
   35.2099    1.0985   27.6418 C   0  0  0  0  0  0  0  0  0  0  0  0
   34.2919    1.4675   26.6553 C   0  0  0  0  0  0  0  0  0  0  0  0
   32.9966    0.9430   26.6669 C   0  0  0  0  0  0  0  0  0  0  0  0
   32.5977    0.0443   27.6770 C   0  0  0  0  0  0  0  0  0  0  0  0
   33.5342   -0.3323   28.6558 C   0  0  0  0  0  0  0  0  0  0  0  0
   34.8283    0.1960   28.6421 C   0  0  0  0  0  0  0  0  0  0  0  0
   37.1875    1.3773   28.3148 H   0  0  0  0  0  0  0  0  0  0  0  0
   31.8331   -2.3211   25.8917 C   0  0  0  0  0  0  0  0  0  0  0  0
   31.3183   -1.6658   24.7591 C   0  0  0  0  0  0  0  0  0  0  0  0
   31.8847   -1.8775   23.4997 C   0  0  0  0  0  0  0  0  0  0  0  0
   32.9705   -2.7445   23.3440 C   0  0  0  0  0  0  0  0  0  0  0  0
   33.4896   -3.4040   24.4729 C   0  0  0  0  0  0  0  0  0  0  0  0
   32.9235   -3.1941   25.7329 C   0  0  0  0  0  0  0  0  0  0  0  0
   33.4995   -2.9228   22.0580 O   0  0  0  0  0  0  0  0  0  0  0  0
   34.5069   -3.8739   21.7227 C   0  0  0  0  0  0  0  0  0  0  0  0
   35.5988   -3.2136   20.8626 C   0  0  0  0  0  0  0  0  0  0  0  0
   35.0994   -2.2918   19.8166 N   0  0  0  0  0  0  0  0  0  0  0  0
   34.5239   -2.9777   18.6440 C   0  0  0  0  0  0  0  0  0  0  0  0
   33.7791   -1.9652   17.7681 C   0  0  0  0  0  0  0  0  0  0  0  0
   34.7178   -0.8287   17.3443 C   0  0  0  0  0  0  0  0  0  0  0  0
   35.4006   -0.1970   18.5637 C   0  0  0  0  0  0  0  0  0  0  0  0
   36.0875   -1.2720   19.4130 C   0  0  0  0  0  0  0  0  0  0  0  0
 13 14  1  0  0  0
 14 15  2  0  0  0
 15 16  1  0  0  0
 16 17  2  0  0  0
 17  1  1  0  0  0
  1  2  1  0  0  0
  2  3  1  0  0  0
  3  4  2  0  0  0
  4  5  1  0  0  0
  5  6  1  0  0  0
  5  7  2  0  0  0
  7  8  1  0  0  0
  8  9  2  0  0  0
  9 10  1  0  0  0
 10 11  1  0  0  0
 11 21  1  0  0  0
 21 22  2  0  0  0
 22 23  1  0  0  0
 23 24  2  0  0  0
 24 27  1  0  0  0
 27 28  1  0  0  0
 28 29  1  0  0  0
 29 30  1  0  0  0
 30 31  1  0  0  0
 31 32  1  0  0  0
 32 33  1  0  0  0
 33 34  1  0  0  0
 34 35  1  0  0  0
 24 25  1  0  0  0
 25 26  2  0  0  0
 17 18  1  0  0  0
 18 19  2  0  0  0
 19 14  1  0  0  0
 11  1  1  0  0  0
 26 21  1  0  0  0
  9  3  1  0  0  0
 35 30  1  0  0  0
 13 20  1  0  0  0
  6 12  1  0  0  0
M  END
> <minimizedAffinity>
-11.12838

$$$$
CMP_1


 35 39  0  0  0  0  0  0  0  0999 V2000
   31.2821   -0.5745   27.6976 C   0  0  0  0  0  0  0  0  0  0  0  0
   30.1013    0.3562   26.6628 S   0  0  0  0  0  0  0  0  0  0  0  0
   28.6861   -0.6260   27.1666 C   0  0  0  0  0  0  0  0  0  0  0  0
   27.4444    0.0065   27.3044 C   0  0  0  0  0  0  0  0  0  0  0  0
   26.3014   -0.7381   27.6107 C   0  0  0  0  0  0  0  0  0  0  0  0
   25.0720   -0.0937   27.7309 O   0  0  0  0  0  0  0  0  0  0  0  0
   26.4014   -2.1239   27.7867 C   0  0  0  0  0  0  0  0  0  0  0  0
   27.6424   -2.7562   27.6761 C   0  0  0  0  0  0  0  0  0  0  0  0
   28.7941   -2.0148   27.3875 C   0  0  0  0  0  0  0  0  0  0  0  0
   30.0294   -2.6815   27.3814 O   0  0  0  0  0  0  0  0  0  0  0  0
   31.3170   -2.0625   27.2689 C   0  0  0  0  0  0  0  0  0  0  0  0
   24.2248   -0.6061   27.9459 H   0  0  0  0  0  0  0  0  0  0  0  0
   36.5634    1.6401   27.6316 O   0  0  0  0  0  0  0  0  0  0  0  0
   35.2755    1.1100   27.6561 C   0  0  0  0  0  0  0  0  0  0  0  0
   34.3642    1.4643   26.6581 C   0  0  0  0  0  0  0  0  0  0  0  0
   33.0687    0.9401   26.6691 C   0  0  0  0  0  0  0  0  0  0  0  0
   32.6630    0.0566   27.6898 C   0  0  0  0  0  0  0  0  0  0  0  0
   33.5930   -0.3054   28.6803 C   0  0  0  0  0  0  0  0  0  0  0  0
   34.8872    0.2225   28.6672 C   0  0  0  0  0  0  0  0  0  0  0  0
   37.2488    1.3986   28.3378 H   0  0  0  0  0  0  0  0  0  0  0  0
   31.8866   -2.2854   25.8790 C   0  0  0  0  0  0  0  0  0  0  0  0
   32.9496   -3.1791   25.6584 C   0  0  0  0  0  0  0  0  0  0  0  0
   33.4387   -3.3932   24.3674 C   0  0  0  0  0  0  0  0  0  0  0  0
   32.8814   -2.7223   23.2745 C   0  0  0  0  0  0  0  0  0  0  0  0
   31.8185   -1.8262   23.4886 C   0  0  0  0  0  0  0  0  0  0  0  0
   31.3290   -1.6102   24.7793 C   0  0  0  0  0  0  0  0  0  0  0  0
   33.4113   -2.9720   22.0009 O   0  0  0  0  0  0  0  0  0  0  0  0
   34.3843   -3.9729   21.7119 C   0  0  0  0  0  0  0  0  0  0  0  0
   34.0983   -4.6154   20.3432 C   0  0  0  0  0  0  0  0  0  0  0  0
   35.2957   -5.0897   19.6119 N   0  0  0  0  0  0  0  0  0  0  0  0
   35.1729   -4.9965   18.1447 C   0  0  0  0  0  0  0  0  0  0  0  0
   36.5424   -5.2241   17.4968 C   0  0  0  0  0  0  0  0  0  0  0  0
   37.1196   -6.5797   17.9232 C   0  0  0  0  0  0  0  0  0  0  0  0
   37.1359   -6.7134   19.4510 C   0  0  0  0  0  0  0  0  0  0  0  0
   35.7455   -6.4318   20.0308 C   0  0  0  0  0  0  0  0  0  0  0  0
 13 14  1  0  0  0
 14 15  2  0  0  0
 15 16  1  0  0  0
 16 17  2  0  0  0
 17  1  1  0  0  0
  1  2  1  0  0  0
  2  3  1  0  0  0
  3  4  2  0  0  0
  4  5  1  0  0  0
  5  6  1  0  0  0
  5  7  2  0  0  0
  7  8  1  0  0  0
  8  9  2  0  0  0
  9 10  1  0  0  0
 10 11  1  0  0  0
 11 21  1  0  0  0
 21 22  2  0  0  0
 22 23  1  0  0  0
 23 24  2  0  0  0
 24 27  1  0  0  0
 27 28  1  0  0  0
 28 29  1  0  0  0
 29 30  1  0  0  0
 30 31  1  0  0  0
 31 32  1  0  0  0
 32 33  1  0  0  0
 33 34  1  0  0  0
 34 35  1  0  0  0
 24 25  1  0  0  0
 25 26  2  0  0  0
 17 18  1  0  0  0
 18 19  2  0  0  0
 19 14  1  0  0  0
 11  1  1  0  0  0
 26 21  1  0  0  0
  9  3  1  0  0  0
 35 30  1  0  0  0
 13 20  1  0  0  0
  6 12  1  0  0  0
M  END
> <minimizedAffinity>
-10.32245

$$$$
CMP_1


 35 39  0  0  0  0  0  0  0  0999 V2000
   36.7001   -2.8101   17.7804 C   0  0  0  0  0  0  0  0  0  0  0  0
   35.2829   -1.7143   17.4311 S   0  0  0  0  0  0  0  0  0  0  0  0
   36.2264   -0.2052   17.6625 C   0  0  0  0  0  0  0  0  0  0  0  0
   35.9314    0.9016   16.8569 C   0  0  0  0  0  0  0  0  0  0  0  0
   36.5836    2.1209   17.0637 C   0  0  0  0  0  0  0  0  0  0  0  0
   36.2677    3.2150   16.2611 O   0  0  0  0  0  0  0  0  0  0  0  0
   37.5418    2.2329   18.0788 C   0  0  0  0  0  0  0  0  0  0  0  0
   37.8587    1.1246   18.8684 C   0  0  0  0  0  0  0  0  0  0  0  0
   37.2230   -0.1042   18.6553 C   0  0  0  0  0  0  0  0  0  0  0  0
   37.6444   -1.2101   19.4104 O   0  0  0  0  0  0  0  0  0  0  0  0
   37.2270   -2.5672   19.2165 C   0  0  0  0  0  0  0  0  0  0  0  0
   36.7181    4.1133   16.3900 H   0  0  0  0  0  0  0  0  0  0  0  0
   35.4754   -8.3532   17.0217 O   0  0  0  0  0  0  0  0  0  0  0  0
   35.7765   -7.0042   17.1943 C   0  0  0  0  0  0  0  0  0  0  0  0
   34.7483   -6.0586   17.1686 C   0  0  0  0  0  0  0  0  0  0  0  0
   35.0349   -4.7017   17.3408 C   0  0  0  0  0  0  0  0  0  0  0  0
   36.3629   -4.2697   17.5329 C   0  0  0  0  0  0  0  0  0  0  0  0
   37.3880   -5.2313   17.5727 C   0  0  0  0  0  0  0  0  0  0  0  0
   37.0977   -6.5874   17.3980 C   0  0  0  0  0  0  0  0  0  0  0  0
   36.1978   -9.0635   17.0404 H   0  0  0  0  0  0  0  0  0  0  0  0
   36.2492   -2.9757   20.3042 C   0  0  0  0  0  0  0  0  0  0  0  0
   34.9718   -2.3951   20.3956 C   0  0  0  0  0  0  0  0  0  0  0  0
   34.0756   -2.8072   21.3850 C   0  0  0  0  0  0  0  0  0  0  0  0
   34.4337   -3.8014   22.3006 C   0  0  0  0  0  0  0  0  0  0  0  0
   35.7104   -4.3855   22.2152 C   0  0  0  0  0  0  0  0  0  0  0  0
   36.6082   -3.9736   21.2270 C   0  0  0  0  0  0  0  0  0  0  0  0
   33.4975   -4.1761   23.2746 O   0  0  0  0  0  0  0  0  0  0  0  0
   32.5491   -3.2920   23.8670 C   0  0  0  0  0  0  0  0  0  0  0  0
   32.7177   -3.2761   25.3965 C   0  0  0  0  0  0  0  0  0  0  0  0
   33.0550   -1.9553   25.9754 N   0  0  0  0  0  0  0  0  0  0  0  0
   33.0205   -1.9252   27.4499 C   0  0  0  0  0  0  0  0  0  0  0  0
   33.6602   -0.6278   27.9547 C   0  0  0  0  0  0  0  0  0  0  0  0
   32.9475    0.5908   27.3552 C   0  0  0  0  0  0  0  0  0  0  0  0
   32.8863    0.4938   25.8258 C   0  0  0  0  0  0  0  0  0  0  0  0
   32.2752   -0.8442   25.3954 C   0  0  0  0  0  0  0  0  0  0  0  0
 13 14  1  0  0  0
 14 15  2  0  0  0
 15 16  1  0  0  0
 16 17  2  0  0  0
 17  1  1  0  0  0
  1  2  1  0  0  0
  2  3  1  0  0  0
  3  4  2  0  0  0
  4  5  1  0  0  0
  5  6  1  0  0  0
  5  7  2  0  0  0
  7  8  1  0  0  0
  8  9  2  0  0  0
  9 10  1  0  0  0
 10 11  1  0  0  0
 11 21  1  0  0  0
 21 22  2  0  0  0
 22 23  1  0  0  0
 23 24  2  0  0  0
 24 27  1  0  0  0
 27 28  1  0  0  0
 28 29  1  0  0  0
 29 30  1  0  0  0
 30 31  1  0  0  0
 31 32  1  0  0  0
 32 33  1  0  0  0
 33 34  1  0  0  0
 34 35  1  0  0  0
 24 25  1  0  0  0
 25 26  2  0  0  0
 17 18  1  0  0  0
 18 19  2  0  0  0
 19 14  1  0  0  0
 11  1  1  0  0  0
 26 21  1  0  0  0
  9  3  1  0  0  0
 35 30  1  0  0  0
 13 20  1  0  0  0
  6 12  1  0  0  0
M  END
> <minimizedAffinity>
-9.24936

$$$$
CMP_1


 35 39  0  0  0  0  0  0  0  0999 V2000
   39.2570   -0.6755   14.8001 C   0  0  0  0  0  0  0  0  0  0  0  0
   40.1888   -2.2014   15.1666 S   0  0  0  0  0  0  0  0  0  0  0  0
   40.5758   -2.5329   13.4456 C   0  0  0  0  0  0  0  0  0  0  0  0
   41.8160   -3.1035   13.1339 C   0  0  0  0  0  0  0  0  0  0  0  0
   42.1211   -3.4564   11.8159 C   0  0  0  0  0  0  0  0  0  0  0  0
   43.3548   -4.0353   11.5264 O   0  0  0  0  0  0  0  0  0  0  0  0
   41.1823   -3.2315   10.8013 C   0  0  0  0  0  0  0  0  0  0  0  0
   39.9536   -2.6384   11.1029 C   0  0  0  0  0  0  0  0  0  0  0  0
   39.6483   -2.2659   12.4172 C   0  0  0  0  0  0  0  0  0  0  0  0
   38.4419   -1.5878   12.6525 O   0  0  0  0  0  0  0  0  0  0  0  0
   38.0421   -0.9916   13.8928 C   0  0  0  0  0  0  0  0  0  0  0  0
   43.6032   -4.3075   10.5827 H   0  0  0  0  0  0  0  0  0  0  0  0
   37.9043    2.0949   19.6267 O   0  0  0  0  0  0  0  0  0  0  0  0
   38.2222    1.4156   18.4529 C   0  0  0  0  0  0  0  0  0  0  0  0
   38.0953    2.0662   17.2230 C   0  0  0  0  0  0  0  0  0  0  0  0
   38.4110    1.3978   16.0369 C   0  0  0  0  0  0  0  0  0  0  0  0
   38.8514    0.0591   16.0655 C   0  0  0  0  0  0  0  0  0  0  0  0
   38.9905   -0.5809   17.3097 C   0  0  0  0  0  0  0  0  0  0  0  0
   38.6718    0.0902   18.4938 C   0  0  0  0  0  0  0  0  0  0  0  0
   37.9908    1.6526   20.5343 H   0  0  0  0  0  0  0  0  0  0  0  0
   36.9809   -1.8437   14.5663 C   0  0  0  0  0  0  0  0  0  0  0  0
   36.0740   -1.2903   15.4876 C   0  0  0  0  0  0  0  0  0  0  0  0
   35.0853   -2.0851   16.0729 C   0  0  0  0  0  0  0  0  0  0  0  0
   34.9817   -3.4426   15.7541 C   0  0  0  0  0  0  0  0  0  0  0  0
   35.8864   -4.0025   14.8340 C   0  0  0  0  0  0  0  0  0  0  0  0
   36.8765   -3.2092   14.2487 C   0  0  0  0  0  0  0  0  0  0  0  0
   33.9729   -4.1950   16.3717 O   0  0  0  0  0  0  0  0  0  0  0  0
   33.6936   -4.1799   17.7695 C   0  0  0  0  0  0  0  0  0  0  0  0
   34.7404   -5.0112   18.5317 C   0  0  0  0  0  0  0  0  0  0  0  0
   36.0250   -4.3194   18.7856 N   0  0  0  0  0  0  0  0  0  0  0  0
   37.1991   -5.0233   18.2356 C   0  0  0  0  0  0  0  0  0  0  0  0
   38.4228   -4.1029   18.2859 C   0  0  0  0  0  0  0  0  0  0  0  0
   38.6792   -3.6283   19.7218 C   0  0  0  0  0  0  0  0  0  0  0  0
   37.4168   -3.0012   20.3264 C   0  0  0  0  0  0  0  0  0  0  0  0
   36.2275   -3.9599   20.2029 C   0  0  0  0  0  0  0  0  0  0  0  0
 13 14  1  0  0  0
 14 15  2  0  0  0
 15 16  1  0  0  0
 16 17  2  0  0  0
 17  1  1  0  0  0
  1  2  1  0  0  0
  2  3  1  0  0  0
  3  4  2  0  0  0
  4  5  1  0  0  0
  5  6  1  0  0  0
  5  7  2  0  0  0
  7  8  1  0  0  0
  8  9  2  0  0  0
  9 10  1  0  0  0
 10 11  1  0  0  0
 11 21  1  0  0  0
 21 22  2  0  0  0
 22 23  1  0  0  0
 23 24  2  0  0  0
 24 27  1  0  0  0
 27 28  1  0  0  0
 28 29  1  0  0  0
 29 30  1  0  0  0
 30 31  1  0  0  0
 31 32  1  0  0  0
 32 33  1  0  0  0
 33 34  1  0  0  0
 34 35  1  0  0  0
 24 25  1  0  0  0
 25 26  2  0  0  0
 17 18  1  0  0  0
 18 19  2  0  0  0
 19 14  1  0  0  0
 11  1  1  0  0  0
 26 21  1  0  0  0
  9  3  1  0  0  0
 35 30  1  0  0  0
 13 20  1  0  0  0
  6 12  1  0  0  0
M  END
> <minimizedAffinity>
-9.18719

$$$$
CMP_1


 35 39  0  0  0  0  0  0  0  0999 V2000
   36.1144   -2.8859   17.7825 C   0  0  0  0  0  0  0  0  0  0  0  0
   34.8088   -1.6206   17.6221 S   0  0  0  0  0  0  0  0  0  0  0  0
   35.9406   -0.2416   17.8184 C   0  0  0  0  0  0  0  0  0  0  0  0
   35.7023    0.9317   17.0920 C   0  0  0  0  0  0  0  0  0  0  0  0
   36.5097    2.0572   17.2815 C   0  0  0  0  0  0  0  0  0  0  0  0
   36.2495    3.2202   16.5597 O   0  0  0  0  0  0  0  0  0  0  0  0
   37.5667    2.0077   18.1988 C   0  0  0  0  0  0  0  0  0  0  0  0
   37.8250    0.8312   18.9070 C   0  0  0  0  0  0  0  0  0  0  0  0
   37.0321   -0.3053   18.7093 C   0  0  0  0  0  0  0  0  0  0  0  0
   37.3908   -1.4893   19.3728 O   0  0  0  0  0  0  0  0  0  0  0  0
   36.8005   -2.7788   19.1671 C   0  0  0  0  0  0  0  0  0  0  0  0
   36.8124    4.0540   16.6790 H   0  0  0  0  0  0  0  0  0  0  0  0
   34.0783   -8.1039   16.5877 O   0  0  0  0  0  0  0  0  0  0  0  0
   34.5702   -6.8363   16.8901 C   0  0  0  0  0  0  0  0  0  0  0  0
   35.9388   -6.6612   17.1099 C   0  0  0  0  0  0  0  0  0  0  0  0
   36.4470   -5.3953   17.4137 C   0  0  0  0  0  0  0  0  0  0  0  0
   35.5863   -4.2833   17.5113 C   0  0  0  0  0  0  0  0  0  0  0  0
   34.2129   -4.4679   17.2728 C   0  0  0  0  0  0  0  0  0  0  0  0
   33.7080   -5.7359   16.9712 C   0  0  0  0  0  0  0  0  0  0  0  0
   33.0920   -8.2624   16.4179 H   0  0  0  0  0  0  0  0  0  0  0  0
   35.8895   -3.1302   20.3300 C   0  0  0  0  0  0  0  0  0  0  0  0
   36.2716   -4.0740   21.2998 C   0  0  0  0  0  0  0  0  0  0  0  0
   35.4319   -4.3604   22.3790 C   0  0  0  0  0  0  0  0  0  0  0  0
   34.1985   -3.7154   22.5122 C   0  0  0  0  0  0  0  0  0  0  0  0
   33.8099   -2.7709   21.5450 C   0  0  0  0  0  0  0  0  0  0  0  0
   34.6480   -2.4843   20.4644 C   0  0  0  0  0  0  0  0  0  0  0  0
   33.3936   -4.0414   23.6128 O   0  0  0  0  0  0  0  0  0  0  0  0
   32.4070   -3.1805   24.1762 C   0  0  0  0  0  0  0  0  0  0  0  0
   32.6142   -3.0544   25.6958 C   0  0  0  0  0  0  0  0  0  0  0  0
   33.0798   -1.7259   26.1559 N   0  0  0  0  0  0  0  0  0  0  0  0
   33.2064   -1.6143   27.6215 C   0  0  0  0  0  0  0  0  0  0  0  0
   33.9629   -0.3306   27.9777 C   0  0  0  0  0  0  0  0  0  0  0  0
   33.2535    0.8930   27.3844 C   0  0  0  0  0  0  0  0  0  0  0  0
   33.0226    0.7171   25.8784 C   0  0  0  0  0  0  0  0  0  0  0  0
   32.3003   -0.6047   25.5954 C   0  0  0  0  0  0  0  0  0  0  0  0
 13 14  1  0  0  0
 14 15  2  0  0  0
 15 16  1  0  0  0
 16 17  2  0  0  0
 17  1  1  0  0  0
  1  2  1  0  0  0
  2  3  1  0  0  0
  3  4  2  0  0  0
  4  5  1  0  0  0
  5  6  1  0  0  0
  5  7  2  0  0  0
  7  8  1  0  0  0
  8  9  2  0  0  0
  9 10  1  0  0  0
 10 11  1  0  0  0
 11 21  1  0  0  0
 21 22  2  0  0  0
 22 23  1  0  0  0
 23 24  2  0  0  0
 24 27  1  0  0  0
 27 28  1  0  0  0
 28 29  1  0  0  0
 29 30  1  0  0  0
 30 31  1  0  0  0
 31 32  1  0  0  0
 32 33  1  0  0  0
 33 34  1  0  0  0
 34 35  1  0  0  0
 24 25  1  0  0  0
 25 26  2  0  0  0
 17 18  1  0  0  0
 18 19  2  0  0  0
 19 14  1  0  0  0
 11  1  1  0  0  0
 26 21  1  0  0  0
  9  3  1  0  0  0
 35 30  1  0  0  0
 13 20  1  0  0  0
  6 12  1  0  0  0
M  END
> <minimizedAffinity>
-9.09433

$$$$
CMP_1


 35 39  0  0  0  0  0  0  0  0999 V2000
   35.5347   -2.7932   17.7430 C   0  0  0  0  0  0  0  0  0  0  0  0
   34.4440   -1.3298   17.7578 S   0  0  0  0  0  0  0  0  0  0  0  0
   35.7981   -0.1611   17.9048 C   0  0  0  0  0  0  0  0  0  0  0  0
   35.6930    1.0740   17.2532 C   0  0  0  0  0  0  0  0  0  0  0  0
   36.6864    2.0448   17.4130 C   0  0  0  0  0  0  0  0  0  0  0  0
   36.5586    3.2729   16.7676 O   0  0  0  0  0  0  0  0  0  0  0  0
   37.7957    1.7769   18.2247 C   0  0  0  0  0  0  0  0  0  0  0  0
   37.9182    0.5365   18.8562 C   0  0  0  0  0  0  0  0  0  0  0  0
   36.9367   -0.4469   18.6864 C   0  0  0  0  0  0  0  0  0  0  0  0
   37.1529   -1.7082   19.2637 O   0  0  0  0  0  0  0  0  0  0  0  0
   36.3448   -2.8741   19.0607 C   0  0  0  0  0  0  0  0  0  0  0  0
   37.2580    3.9989   16.8683 H   0  0  0  0  0  0  0  0  0  0  0  0
   32.5991   -7.5563   16.5198 O   0  0  0  0  0  0  0  0  0  0  0  0
   33.3093   -6.3987   16.8291 C   0  0  0  0  0  0  0  0  0  0  0  0
   34.6828   -6.4759   17.0730 C   0  0  0  0  0  0  0  0  0  0  0  0
   35.4088   -5.3229   17.3840 C   0  0  0  0  0  0  0  0  0  0  0  0
   34.7645   -4.0717   17.4644 C   0  0  0  0  0  0  0  0  0  0  0  0
   33.3849   -4.0031   17.2017 C   0  0  0  0  0  0  0  0  0  0  0  0
   32.6617   -5.1588   16.8930 C   0  0  0  0  0  0  0  0  0  0  0  0
   31.6036   -7.5326   16.3326 H   0  0  0  0  0  0  0  0  0  0  0  0
   35.4914   -3.1411   20.2880 C   0  0  0  0  0  0  0  0  0  0  0  0
   34.2117   -2.5752   20.4269 C   0  0  0  0  0  0  0  0  0  0  0  0
   33.4300   -2.8583   21.5496 C   0  0  0  0  0  0  0  0  0  0  0  0
   33.9068   -3.7068   22.5535 C   0  0  0  0  0  0  0  0  0  0  0  0
   35.1865   -4.2753   22.4212 C   0  0  0  0  0  0  0  0  0  0  0  0
   35.9699   -3.9923   21.2994 C   0  0  0  0  0  0  0  0  0  0  0  0
   33.0827   -3.9557   23.6600 O   0  0  0  0  0  0  0  0  0  0  0  0
   33.1652   -3.2614   24.9022 C   0  0  0  0  0  0  0  0  0  0  0  0
   32.1140   -2.1388   24.9566 C   0  0  0  0  0  0  0  0  0  0  0  0
   31.4356   -1.9795   26.2634 N   0  0  0  0  0  0  0  0  0  0  0  0
   29.9814   -2.2230   26.2128 C   0  0  0  0  0  0  0  0  0  0  0  0
   29.4256   -2.3257   27.6368 C   0  0  0  0  0  0  0  0  0  0  0  0
   29.7510   -1.0559   28.4331 C   0  0  0  0  0  0  0  0  0  0  0  0
   31.2523   -0.7463   28.3834 C   0  0  0  0  0  0  0  0  0  0  0  0
   31.7447   -0.7007   26.9328 C   0  0  0  0  0  0  0  0  0  0  0  0
 13 14  1  0  0  0
 14 15  2  0  0  0
 15 16  1  0  0  0
 16 17  2  0  0  0
 17  1  1  0  0  0
  1  2  1  0  0  0
  2  3  1  0  0  0
  3  4  2  0  0  0
  4  5  1  0  0  0
  5  6  1  0  0  0
  5  7  2  0  0  0
  7  8  1  0  0  0
  8  9  2  0  0  0
  9 10  1  0  0  0
 10 11  1  0  0  0
 11 21  1  0  0  0
 21 22  2  0  0  0
 22 23  1  0  0  0
 23 24  2  0  0  0
 24 27  1  0  0  0
 27 28  1  0  0  0
 28 29  1  0  0  0
 29 30  1  0  0  0
 30 31  1  0  0  0
 31 32  1  0  0  0
 32 33  1  0  0  0
 33 34  1  0  0  0
 34 35  1  0  0  0
 24 25  1  0  0  0
 25 26  2  0  0  0
 17 18  1  0  0  0
 18 19  2  0  0  0
 19 14  1  0  0  0
 11  1  1  0  0  0
 26 21  1  0  0  0
  9  3  1  0  0  0
 35 30  1  0  0  0
 13 20  1  0  0  0
  6 12  1  0  0  0
M  END
> <minimizedAffinity>
-8.86372

$$$$
CMP_1


 35 39  0  0  0  0  0  0  0  0999 V2000
   36.6558   -2.4470   17.5240 C   0  0  0  0  0  0  0  0  0  0  0  0
   37.7316   -2.6887   18.9784 S   0  0  0  0  0  0  0  0  0  0  0  0
   36.3664   -3.0209   20.0951 C   0  0  0  0  0  0  0  0  0  0  0  0
   36.5490   -3.9587   21.1189 C   0  0  0  0  0  0  0  0  0  0  0  0
   35.5405   -4.1827   22.0611 C   0  0  0  0  0  0  0  0  0  0  0  0
   35.7450   -5.1099   23.0807 O   0  0  0  0  0  0  0  0  0  0  0  0
   34.3387   -3.4689   21.9756 C   0  0  0  0  0  0  0  0  0  0  0  0
   34.1413   -2.5510   20.9407 C   0  0  0  0  0  0  0  0  0  0  0  0
   35.1393   -2.3347   19.9833 C   0  0  0  0  0  0  0  0  0  0  0  0
   34.8559   -1.4745   18.9108 O   0  0  0  0  0  0  0  0  0  0  0  0
   35.6865   -1.2626   17.7624 C   0  0  0  0  0  0  0  0  0  0  0  0
   35.0363   -5.2902   23.7819 H   0  0  0  0  0  0  0  0  0  0  0  0
   39.7568   -1.9928   12.7305 O   0  0  0  0  0  0  0  0  0  0  0  0
   39.0034   -2.0909   13.8979 C   0  0  0  0  0  0  0  0  0  0  0  0
   37.6115   -2.1796   13.8157 C   0  0  0  0  0  0  0  0  0  0  0  0
   36.8423   -2.2791   14.9782 C   0  0  0  0  0  0  0  0  0  0  0  0
   37.4586   -2.2821   16.2459 C   0  0  0  0  0  0  0  0  0  0  0  0
   38.8610   -2.2082   16.3164 C   0  0  0  0  0  0  0  0  0  0  0  0
   39.6269   -2.1067   15.1515 C   0  0  0  0  0  0  0  0  0  0  0  0
   40.7680   -1.9323   12.7565 H   0  0  0  0  0  0  0  0  0  0  0  0
   36.3794    0.0853   17.8577 C   0  0  0  0  0  0  0  0  0  0  0  0
   37.1622    0.4285   18.9743 C   0  0  0  0  0  0  0  0  0  0  0  0
   37.8166    1.6616   19.0285 C   0  0  0  0  0  0  0  0  0  0  0  0
   37.7033    2.5747   17.9757 C   0  0  0  0  0  0  0  0  0  0  0  0
   36.9210    2.2379   16.8563 C   0  0  0  0  0  0  0  0  0  0  0  0
   36.2650    1.0055   16.8011 C   0  0  0  0  0  0  0  0  0  0  0  0
   38.3787    3.7986   18.0820 O   0  0  0  0  0  0  0  0  0  0  0  0
   38.2410    4.8805   17.1641 C   0  0  0  0  0  0  0  0  0  0  0  0
   38.7053    6.1951   17.8156 C   0  0  0  0  0  0  0  0  0  0  0  0
   40.0812    6.1704   18.3630 N   0  0  0  0  0  0  0  0  0  0  0  0
   40.1655    6.5735   19.7797 C   0  0  0  0  0  0  0  0  0  0  0  0
   41.5551    6.2371   20.3300 C   0  0  0  0  0  0  0  0  0  0  0  0
   42.6441    6.9172   19.4910 C   0  0  0  0  0  0  0  0  0  0  0  0
   42.4786    6.5846   18.0029 C   0  0  0  0  0  0  0  0  0  0  0  0
   41.0555    6.9073   17.5343 C   0  0  0  0  0  0  0  0  0  0  0  0
 13 14  1  0  0  0
 14 15  2  0  0  0
 15 16  1  0  0  0
 16 17  2  0  0  0
 17  1  1  0  0  0
  1  2  1  0  0  0
  2  3  1  0  0  0
  3  4  2  0  0  0
  4  5  1  0  0  0
  5  6  1  0  0  0
  5  7  2  0  0  0
  7  8  1  0  0  0
  8  9  2  0  0  0
  9 10  1  0  0  0
 10 11  1  0  0  0
 11 21  1  0  0  0
 21 22  2  0  0  0
 22 23  1  0  0  0
 23 24  2  0  0  0
 24 27  1  0  0  0
 27 28  1  0  0  0
 28 29  1  0  0  0
 29 30  1  0  0  0
 30 31  1  0  0  0
 31 32  1  0  0  0
 32 33  1  0  0  0
 33 34  1  0  0  0
 34 35  1  0  0  0
 24 25  1  0  0  0
 25 26  2  0  0  0
 17 18  1  0  0  0
 18 19  2  0  0  0
 19 14  1  0  0  0
 11  1  1  0  0  0
 26 21  1  0  0  0
  9  3  1  0  0  0
 35 30  1  0  0  0
 13 20  1  0  0  0
  6 12  1  0  0  0
M  END
> <minimizedAffinity>
-8.80628

$$$$
CMP_1


 35 39  0  0  0  0  0  0  0  0999 V2000
   36.9084   -2.1200   17.3495 C   0  0  0  0  0  0  0  0  0  0  0  0
   37.9166   -2.3724   18.8499 S   0  0  0  0  0  0  0  0  0  0  0  0
   36.5058   -2.7581   19.8901 C   0  0  0  0  0  0  0  0  0  0  0  0
   36.6583   -3.7149   20.9012 C   0  0  0  0  0  0  0  0  0  0  0  0
   35.6100   -3.9811   21.7871 C   0  0  0  0  0  0  0  0  0  0  0  0
   35.7843   -4.9268   22.7952 O   0  0  0  0  0  0  0  0  0  0  0  0
   34.3985   -3.2905   21.6577 C   0  0  0  0  0  0  0  0  0  0  0  0
   34.2322   -2.3537   20.6344 C   0  0  0  0  0  0  0  0  0  0  0  0
   35.2710   -2.0951   19.7326 C   0  0  0  0  0  0  0  0  0  0  0  0
   35.0219   -1.2168   18.6662 O   0  0  0  0  0  0  0  0  0  0  0  0
   35.9031   -0.9617   17.5652 C   0  0  0  0  0  0  0  0  0  0  0  0
   35.0462   -5.1376   23.4564 H   0  0  0  0  0  0  0  0  0  0  0  0
   40.2343   -1.4906   12.7297 O   0  0  0  0  0  0  0  0  0  0  0  0
   39.4255   -1.6314   13.8549 C   0  0  0  0  0  0  0  0  0  0  0  0
   38.0456   -1.7841   13.6984 C   0  0  0  0  0  0  0  0  0  0  0  0
   37.2214   -1.9270   14.8180 C   0  0  0  0  0  0  0  0  0  0  0  0
   37.7692   -1.9096   16.1167 C   0  0  0  0  0  0  0  0  0  0  0  0
   39.1609   -1.7710   16.2619 C   0  0  0  0  0  0  0  0  0  0  0  0
   39.9818   -1.6263   15.1399 C   0  0  0  0  0  0  0  0  0  0  0  0
   41.2387   -1.3833   12.8097 H   0  0  0  0  0  0  0  0  0  0  0  0
   36.5609    0.3977   17.7239 C   0  0  0  0  0  0  0  0  0  0  0  0
   37.2322    0.7523   18.9076 C   0  0  0  0  0  0  0  0  0  0  0  0
   37.8574    1.9963   19.0218 C   0  0  0  0  0  0  0  0  0  0  0  0
   37.8251    2.9093   17.9633 C   0  0  0  0  0  0  0  0  0  0  0  0
   37.1544    2.5612   16.7769 C   0  0  0  0  0  0  0  0  0  0  0  0
   36.5276    1.3178   16.6615 C   0  0  0  0  0  0  0  0  0  0  0  0
   38.4667    4.1444   18.1312 O   0  0  0  0  0  0  0  0  0  0  0  0
   39.0155    4.9216   17.0696 C   0  0  0  0  0  0  0  0  0  0  0  0
   38.3498    6.3082   17.0245 C   0  0  0  0  0  0  0  0  0  0  0  0
   38.2248    6.9855   18.3356 N   0  0  0  0  0  0  0  0  0  0  0  0
   37.4604    8.2463   18.2838 C   0  0  0  0  0  0  0  0  0  0  0  0
   37.1357    8.7115   19.7069 C   0  0  0  0  0  0  0  0  0  0  0  0
   38.4224    8.8727   20.5260 C   0  0  0  0  0  0  0  0  0  0  0  0
   39.2672    7.5935   20.4786 C   0  0  0  0  0  0  0  0  0  0  0  0
   39.5160    7.1663   19.0279 C   0  0  0  0  0  0  0  0  0  0  0  0
 13 14  1  0  0  0
 14 15  2  0  0  0
 15 16  1  0  0  0
 16 17  2  0  0  0
 17  1  1  0  0  0
  1  2  1  0  0  0
  2  3  1  0  0  0
  3  4  2  0  0  0
  4  5  1  0  0  0
  5  6  1  0  0  0
  5  7  2  0  0  0
  7  8  1  0  0  0
  8  9  2  0  0  0
  9 10  1  0  0  0
 10 11  1  0  0  0
 11 21  1  0  0  0
 21 22  2  0  0  0
 22 23  1  0  0  0
 23 24  2  0  0  0
 24 27  1  0  0  0
 27 28  1  0  0  0
 28 29  1  0  0  0
 29 30  1  0  0  0
 30 31  1  0  0  0
 31 32  1  0  0  0
 32 33  1  0  0  0
 33 34  1  0  0  0
 34 35  1  0  0  0
 24 25  1  0  0  0
 25 26  2  0  0  0
 17 18  1  0  0  0
 18 19  2  0  0  0
 19 14  1  0  0  0
 11  1  1  0  0  0
 26 21  1  0  0  0
  9  3  1  0  0  0
 35 30  1  0  0  0
 13 20  1  0  0  0
  6 12  1  0  0  0
M  END
> <minimizedAffinity>
-8.78948

$$$$
