MODEL        2
REMARK  Name = CMP_0
REMARK  8 active torsions:
REMARK  status: ('A' for Active; 'I' for Inactive)
REMARK    1  A    between atoms: C_1  and  C_17
REMARK    2  A    between atoms: C_5  and  O_6
REMARK    3  A    between atoms: C_11  and  C_21
REMARK    4  A    between atoms: O_13  and  C_14
REMARK    5  A    between atoms: C_24  and  O_27
REMARK    6  A    between atoms: O_27  and  C_28
REMARK    7  A    between atoms: C_28  and  C_29
REMARK    8  A    between atoms: C_29  and  N_30
REMARK                            x       y       z     vdW  Elec       q    Type
REMARK                         _______ _______ _______ _____ _____    ______ ____
ROOT
ATOM      1  C   UNL     1      37.582  -1.574  17.392  0.00  0.00    +0.118 C 
ATOM      2  C   UNL     1      36.879  -0.896  18.602  0.00  0.00    +0.202 C 
ATOM      3  O   UNL     1      35.945   0.108  18.182  0.00  0.00    -0.473 OA
ATOM      4  C   UNL     1      36.023   0.858  17.000  0.00  0.00    +0.145 A 
ATOM      5  C   UNL     1      37.084   0.707  16.089  0.00  0.00    +0.063 A 
ATOM      6  C   UNL     1      37.042   1.365  14.854  0.00  0.00    +0.046 A 
ATOM      7  C   UNL     1      35.972   2.215  14.542  0.00  0.00    +0.134 A 
ATOM      8  C   UNL     1      34.941   2.399  15.468  0.00  0.00    +0.040 A 
ATOM      9  C   UNL     1      34.966   1.722  16.690  0.00  0.00    +0.041 A 
ATOM     10  S   UNL     1      38.517  -0.293  16.489  0.00  0.00    -0.103 S 
ENDROOT
BRANCH   2  11
ATOM     11  C   UNL     1      36.193  -1.842  19.582  0.00  0.00    +0.019 A 
ATOM     12  C   UNL     1      36.896  -2.760  20.392  0.00  0.00    +0.002 A 
ATOM     13  C   UNL     1      36.214  -3.584  21.291  0.00  0.00    +0.037 A 
ATOM     14  C   UNL     1      34.825  -3.501  21.423  0.00  0.00    +0.139 A 
ATOM     15  C   UNL     1      34.118  -2.571  20.642  0.00  0.00    +0.037 A 
ATOM     16  C   UNL     1      34.797  -1.747  19.741  0.00  0.00    +0.002 A 
BRANCH  14  17
ATOM     17  O   UNL     1      34.192  -4.352  22.339  0.00  0.00    -0.474 OA
BRANCH  17  18
ATOM     18  C   UNL     1      32.964  -4.058  23.000  0.00  0.00    +0.223 C 
BRANCH  18  19
ATOM     19  C   UNL     1      33.234  -3.293  24.297  0.00  0.00    +0.120 C 
BRANCH  19  20
ATOM     20  N   UNL     1      31.972  -2.886  24.950  0.00  0.00    -0.267 NA
ATOM     21  C   UNL     1      32.163  -2.666  26.385  0.00  0.00    +0.108 C 
ATOM     22  C   UNL     1      31.056  -1.728  26.825  0.00  0.00    +0.178 C 
ATOM     23  F   UNL     1      29.952  -2.461  27.232  0.00  0.00    -0.236 F 
ATOM     24  C   UNL     1      30.716  -0.922  25.582  0.00  0.00    +0.054 C 
ATOM     25  C   UNL     1      31.433  -1.620  24.431  0.00  0.00    +0.075 C 
ENDBRANCH  19  20
ENDBRANCH  18  19
ENDBRANCH  17  18
ENDBRANCH  14  17
ENDBRANCH   2  11
BRANCH   1  26
ATOM     26  C   UNL     1      36.717  -2.388  16.434  0.00  0.00    -0.008 A 
ATOM     27  C   UNL     1      37.328  -2.931  15.289  0.00  0.00    -0.000 A 
ATOM     28  C   UNL     1      36.588  -3.677  14.368  0.00  0.00    +0.036 A 
ATOM     29  C   UNL     1      35.222  -3.895  14.576  0.00  0.00    +0.134 A 
ATOM     30  C   UNL     1      34.602  -3.366  15.710  0.00  0.00    +0.036 A 
ATOM     31  C   UNL     1      35.339  -2.619  16.634  0.00  0.00    -0.000 A 
BRANCH  29  32
ATOM     32  O   UNL     1      34.472  -4.636  13.665  0.00  0.00    -0.506 OA
ATOM     33  H   UNL     1      34.895  -5.040  12.837  0.00  0.00    +0.292 HD
ENDBRANCH  29  32
ENDBRANCH   1  26
BRANCH   7  34
ATOM     34  O   UNL     1      35.927   2.883  13.321  0.00  0.00    -0.505 OA
ATOM     35  H   UNL     1      36.659   2.771  12.629  0.00  0.00    +0.292 HD
ENDBRANCH   7  34
TORSDOF 8
ENDMDL
MODEL        3
REMARK  Name = CMP_0
REMARK  8 active torsions:
REMARK  status: ('A' for Active; 'I' for Inactive)
REMARK    1  A    between atoms: C_1  and  C_17
REMARK    2  A    between atoms: C_5  and  O_6
REMARK    3  A    between atoms: C_11  and  C_21
REMARK    4  A    between atoms: O_13  and  C_14
REMARK    5  A    between atoms: C_24  and  O_27
REMARK    6  A    between atoms: O_27  and  C_28
REMARK    7  A    between atoms: C_28  and  C_29
REMARK    8  A    between atoms: C_29  and  N_30
REMARK                            x       y       z     vdW  Elec       q    Type
REMARK                         _______ _______ _______ _____ _____    ______ ____
ROOT
ATOM      1  C   UNL     1      38.058  -0.416  17.696  0.00  0.00    +0.118 C 
ATOM      2  C   UNL     1      36.864  -0.077  18.631  0.00  0.00    +0.202 C 
ATOM      3  O   UNL     1      35.810   0.596  17.929  0.00  0.00    -0.473 OA
ATOM      4  C   UNL     1      35.966   1.402  16.792  0.00  0.00    +0.145 A 
ATOM      5  C   UNL     1      37.228   1.658  16.226  0.00  0.00    +0.063 A 
ATOM      6  C   UNL     1      37.320   2.341  15.007  0.00  0.00    +0.046 A 
ATOM      7  C   UNL     1      36.164   2.817  14.376  0.00  0.00    +0.134 A 
ATOM      8  C   UNL     1      34.914   2.602  14.963  0.00  0.00    +0.040 A 
ATOM      9  C   UNL     1      34.816   1.896  16.165  0.00  0.00    +0.041 A 
ATOM     10  S   UNL     1      38.737   1.151  17.051  0.00  0.00    -0.103 S 
ENDROOT
BRANCH   2  11
ATOM     11  C   UNL     1      36.279  -1.252  19.409  0.00  0.00    +0.019 A 
ATOM     12  C   UNL     1      37.072  -2.187  20.109  0.00  0.00    +0.002 A 
ATOM     13  C   UNL     1      36.477  -3.228  20.826  0.00  0.00    +0.037 A 
ATOM     14  C   UNL     1      35.087  -3.354  20.882  0.00  0.00    +0.139 A 
ATOM     15  C   UNL     1      34.288  -2.412  20.211  0.00  0.00    +0.037 A 
ATOM     16  C   UNL     1      34.880  -1.371  19.492  0.00  0.00    +0.002 A 
BRANCH  14  17
ATOM     17  O   UNL     1      34.544  -4.419  21.614  0.00  0.00    -0.474 OA
BRANCH  17  18
ATOM     18  C   UNL     1      33.341  -4.346  22.374  0.00  0.00    +0.223 C 
BRANCH  18  19
ATOM     19  C   UNL     1      33.582  -3.570  23.670  0.00  0.00    +0.120 C 
BRANCH  19  20
ATOM     20  N   UNL     1      32.307  -3.138  24.280  0.00  0.00    -0.267 NA
ATOM     21  C   UNL     1      32.422  -3.041  25.737  0.00  0.00    +0.108 C 
ATOM     22  C   UNL     1      31.344  -2.074  26.187  0.00  0.00    +0.178 C 
ATOM     23  F   UNL     1      30.178  -2.767  26.469  0.00  0.00    -0.236 F 
ATOM     24  C   UNL     1      31.128  -1.155  24.996  0.00  0.00    +0.054 C 
ATOM     25  C   UNL     1      31.875  -1.805  23.835  0.00  0.00    +0.075 C 
ENDBRANCH  19  20
ENDBRANCH  18  19
ENDBRANCH  17  18
ENDBRANCH  14  17
ENDBRANCH   2  11
BRANCH   1  26
ATOM     26  C   UNL     1      37.811  -1.405  16.560  0.00  0.00    -0.008 A 
ATOM     27  C   UNL     1      38.878  -1.694  15.689  0.00  0.00    -0.000 A 
ATOM     28  C   UNL     1      38.712  -2.583  14.624  0.00  0.00    +0.036 A 
ATOM     29  C   UNL     1      37.476  -3.202  14.411  0.00  0.00    +0.134 A 
ATOM     30  C   UNL     1      36.409  -2.928  15.270  0.00  0.00    +0.036 A 
ATOM     31  C   UNL     1      36.570  -2.039  16.336  0.00  0.00    -0.000 A 
BRANCH  29  32
ATOM     32  O   UNL     1      37.297  -4.090  13.353  0.00  0.00    -0.506 OA
ATOM     33  H   UNL     1      38.054  -4.315  12.718  0.00  0.00    +0.292 HD
ENDBRANCH  29  32
ENDBRANCH   1  26
BRANCH   7  34
ATOM     34  O   UNL     1      36.247   3.509  13.169  0.00  0.00    -0.505 OA
ATOM     35  H   UNL     1      37.138   3.682  12.718  0.00  0.00    +0.292 HD
ENDBRANCH   7  34
TORSDOF 8
ENDMDL
MODEL        4
REMARK  Name = CMP_0
REMARK  8 active torsions:
REMARK  status: ('A' for Active; 'I' for Inactive)
REMARK    1  A    between atoms: C_1  and  C_17
REMARK    2  A    between atoms: C_5  and  O_6
REMARK    3  A    between atoms: C_11  and  C_21
REMARK    4  A    between atoms: O_13  and  C_14
REMARK    5  A    between atoms: C_24  and  O_27
REMARK    6  A    between atoms: O_27  and  C_28
REMARK    7  A    between atoms: C_28  and  C_29
REMARK    8  A    between atoms: C_29  and  N_30
REMARK                            x       y       z     vdW  Elec       q    Type
REMARK                         _______ _______ _______ _____ _____    ______ ____
ROOT
ATOM      1  C   UNL     1      33.054  -2.845  18.275  0.00  0.00    +0.118 C 
ATOM      2  C   UNL     1      33.333  -4.106  19.141  0.00  0.00    +0.202 C 
ATOM      3  O   UNL     1      34.531  -4.780  18.733  0.00  0.00    -0.473 OA
ATOM      4  C   UNL     1      35.077  -4.772  17.442  0.00  0.00    +0.145 A 
ATOM      5  C   UNL     1      34.460  -4.095  16.375  0.00  0.00    +0.063 A 
ATOM      6  C   UNL     1      35.117  -3.988  15.143  0.00  0.00    +0.046 A 
ATOM      7  C   UNL     1      36.365  -4.598  14.953  0.00  0.00    +0.134 A 
ATOM      8  C   UNL     1      36.955  -5.309  16.001  0.00  0.00    +0.040 A 
ATOM      9  C   UNL     1      36.314  -5.394  17.240  0.00  0.00    +0.041 A 
ATOM     10  S   UNL     1      32.823  -3.384  16.547  0.00  0.00    -0.103 S 
ENDROOT
BRANCH   2  11
ATOM     11  C   UNL     1      33.374  -3.876  20.649  0.00  0.00    +0.019 A 
ATOM     12  C   UNL     1      34.484  -4.213  21.452  0.00  0.00    +0.002 A 
ATOM     13  C   UNL     1      34.474  -3.955  22.826  0.00  0.00    +0.037 A 
ATOM     14  C   UNL     1      33.374  -3.339  23.427  0.00  0.00    +0.139 A 
ATOM     15  C   UNL     1      32.274  -2.974  22.632  0.00  0.00    +0.037 A 
ATOM     16  C   UNL     1      32.281  -3.232  21.259  0.00  0.00    +0.002 A 
BRANCH  14  17
ATOM     17  O   UNL     1      33.416  -3.105  24.809  0.00  0.00    -0.474 OA
BRANCH  17  18
ATOM     18  C   UNL     1      32.836  -1.974  25.455  0.00  0.00    +0.223 C 
BRANCH  18  19
ATOM     19  C   UNL     1      33.133  -2.016  26.956  0.00  0.00    +0.120 C 
BRANCH  19  20
ATOM     20  N   UNL     1      33.513  -0.680  27.461  0.00  0.00    -0.267 NA
ATOM     21  C   UNL     1      34.922  -0.390  27.187  0.00  0.00    +0.108 C 
ATOM     22  C   UNL     1      35.055   1.120  27.184  0.00  0.00    +0.178 C 
ATOM     23  F   UNL     1      35.361   1.568  28.459  0.00  0.00    -0.236 F 
ATOM     24  C   UNL     1      33.684   1.627  26.769  0.00  0.00    +0.054 C 
ATOM     25  C   UNL     1      32.761   0.414  26.830  0.00  0.00    +0.075 C 
ENDBRANCH  19  20
ENDBRANCH  18  19
ENDBRANCH  17  18
ENDBRANCH  14  17
ENDBRANCH   2  11
BRANCH   1  26
ATOM     26  C   UNL     1      34.055  -1.696  18.353  0.00  0.00    -0.008 A 
ATOM     27  C   UNL     1      34.114  -0.795  17.273  0.00  0.00    -0.000 A 
ATOM     28  C   UNL     1      35.016   0.272  17.280  0.00  0.00    +0.036 A 
ATOM     29  C   UNL     1      35.876   0.459  18.369  0.00  0.00    +0.134 A 
ATOM     30  C   UNL     1      35.825  -0.425  19.449  0.00  0.00    +0.036 A 
ATOM     31  C   UNL     1      34.924  -1.493  19.446  0.00  0.00    -0.000 A 
BRANCH  29  32
ATOM     32  O   UNL     1      36.780   1.518  18.387  0.00  0.00    -0.506 OA
ATOM     33  H   UNL     1      36.835   2.181  17.622  0.00  0.00    +0.292 HD
ENDBRANCH  29  32
ENDBRANCH   1  26
BRANCH   7  34
ATOM     34  O   UNL     1      37.021  -4.508  13.727  0.00  0.00    -0.505 OA
ATOM     35  H   UNL     1      36.619  -3.999  12.948  0.00  0.00    +0.292 HD
ENDBRANCH   7  34
TORSDOF 8
ENDMDL
MODEL        5
REMARK  Name = CMP_0
REMARK  8 active torsions:
REMARK  status: ('A' for Active; 'I' for Inactive)
REMARK    1  A    between atoms: C_1  and  C_17
REMARK    2  A    between atoms: C_5  and  O_6
REMARK    3  A    between atoms: C_11  and  C_21
REMARK    4  A    between atoms: O_13  and  C_14
REMARK    5  A    between atoms: C_24  and  O_27
REMARK    6  A    between atoms: O_27  and  C_28
REMARK    7  A    between atoms: C_28  and  C_29
REMARK    8  A    between atoms: C_29  and  N_30
REMARK                            x       y       z     vdW  Elec       q    Type
REMARK                         _______ _______ _______ _____ _____    ______ ____
ROOT
ATOM      1  C   UNL     1      34.008  -4.483  20.229  0.00  0.00    +0.118 C 
ATOM      2  C   UNL     1      34.700  -3.756  21.416  0.00  0.00    +0.202 C 
ATOM      3  O   UNL     1      35.522  -2.669  20.970  0.00  0.00    -0.473 OA
ATOM      4  C   UNL     1      36.156  -2.578  19.723  0.00  0.00    +0.145 A 
ATOM      5  C   UNL     1      36.061  -3.600  18.761  0.00  0.00    +0.063 A 
ATOM      6  C   UNL     1      36.583  -3.400  17.477  0.00  0.00    +0.046 A 
ATOM      7  C   UNL     1      37.245  -2.206  17.162  0.00  0.00    +0.134 A 
ATOM      8  C   UNL     1      37.378  -1.209  18.133  0.00  0.00    +0.040 A 
ATOM      9  C   UNL     1      36.834  -1.395  19.407  0.00  0.00    +0.041 A 
ATOM     10  S   UNL     1      35.308  -5.178  19.154  0.00  0.00    -0.103 S 
ENDROOT
BRANCH   2  11
ATOM     11  C   UNL     1      33.771  -3.263  22.521  0.00  0.00    +0.019 A 
ATOM     12  C   UNL     1      32.742  -2.321  22.303  0.00  0.00    +0.002 A 
ATOM     13  C   UNL     1      31.906  -1.927  23.351  0.00  0.00    +0.037 A 
ATOM     14  C   UNL     1      32.056  -2.471  24.628  0.00  0.00    +0.139 A 
ATOM     15  C   UNL     1      33.059  -3.431  24.849  0.00  0.00    +0.037 A 
ATOM     16  C   UNL     1      33.898  -3.826  23.805  0.00  0.00    +0.002 A 
BRANCH  14  17
ATOM     17  O   UNL     1      31.191  -2.039  25.643  0.00  0.00    -0.474 OA
BRANCH  17  18
ATOM     18  C   UNL     1      30.991  -0.676  26.009  0.00  0.00    +0.223 C 
BRANCH  18  19
ATOM     19  C   UNL     1      31.275  -0.484  27.500  0.00  0.00    +0.120 C 
BRANCH  19  20
ATOM     20  N   UNL     1      32.541   0.249  27.713  0.00  0.00    -0.267 NA
ATOM     21  C   UNL     1      33.665  -0.673  27.886  0.00  0.00    +0.108 C 
ATOM     22  C   UNL     1      34.914   0.100  27.508  0.00  0.00    +0.178 C 
ATOM     23  F   UNL     1      35.440   0.722  28.629  0.00  0.00    -0.236 F 
ATOM     24  C   UNL     1      34.436   1.141  26.510  0.00  0.00    +0.054 C 
ATOM     25  C   UNL     1      32.912   1.106  26.577  0.00  0.00    +0.075 C 
ENDBRANCH  19  20
ENDBRANCH  18  19
ENDBRANCH  17  18
ENDBRANCH  14  17
ENDBRANCH   2  11
BRANCH   1  26
ATOM     26  C   UNL     1      32.995  -3.692  19.406  0.00  0.00    -0.008 A 
ATOM     27  C   UNL     1      31.629  -3.853  19.705  0.00  0.00    -0.000 A 
ATOM     28  C   UNL     1      30.652  -3.165  18.982  0.00  0.00    +0.036 A 
ATOM     29  C   UNL     1      31.022  -2.300  17.946  0.00  0.00    +0.134 A 
ATOM     30  C   UNL     1      32.374  -2.127  17.641  0.00  0.00    +0.036 A 
ATOM     31  C   UNL     1      33.355  -2.813  18.362  0.00  0.00    -0.000 A 
BRANCH  29  32
ATOM     32  O   UNL     1      30.058  -1.608  17.217  0.00  0.00    -0.506 OA
ATOM     33  H   UNL     1      29.070  -1.707  17.420  0.00  0.00    +0.292 HD
ENDBRANCH  29  32
ENDBRANCH   1  26
BRANCH   7  34
ATOM     34  O   UNL     1      37.778  -2.003  15.891  0.00  0.00    -0.505 OA
ATOM     35  H   UNL     1      37.699  -2.706  15.165  0.00  0.00    +0.292 HD
ENDBRANCH   7  34
TORSDOF 8
ENDMDL
MODEL        6
REMARK  Name = CMP_0
REMARK  8 active torsions:
REMARK  status: ('A' for Active; 'I' for Inactive)
REMARK    1  A    between atoms: C_1  and  C_17
REMARK    2  A    between atoms: C_5  and  O_6
REMARK    3  A    between atoms: C_11  and  C_21
REMARK    4  A    between atoms: O_13  and  C_14
REMARK    5  A    between atoms: C_24  and  O_27
REMARK    6  A    between atoms: O_27  and  C_28
REMARK    7  A    between atoms: C_28  and  C_29
REMARK    8  A    between atoms: C_29  and  N_30
REMARK                            x       y       z     vdW  Elec       q    Type
REMARK                         _______ _______ _______ _____ _____    ______ ____
ROOT
ATOM      1  C   UNL     1      37.533   0.499  18.413  0.00  0.00    +0.118 C 
ATOM      2  C   UNL     1      36.005   0.349  18.658  0.00  0.00    +0.202 C 
ATOM      3  O   UNL     1      35.235   0.985  17.629  0.00  0.00    -0.473 OA
ATOM      4  C   UNL     1      35.642   2.083  16.859  0.00  0.00    +0.145 A 
ATOM      5  C   UNL     1      36.889   2.707  17.050  0.00  0.00    +0.063 A 
ATOM      6  C   UNL     1      37.315   3.701  16.161  0.00  0.00    +0.046 A 
ATOM      7  C   UNL     1      36.483   4.113  15.111  0.00  0.00    +0.134 A 
ATOM      8  C   UNL     1      35.226   3.523  14.950  0.00  0.00    +0.040 A 
ATOM      9  C   UNL     1      34.809   2.512  15.820  0.00  0.00    +0.041 A 
ATOM     10  S   UNL     1      37.940   2.277  18.437  0.00  0.00    -0.103 S 
ENDROOT
BRANCH   2  11
ATOM     11  C   UNL     1      35.504  -1.079  18.852  0.00  0.00    +0.019 A 
ATOM     12  C   UNL     1      34.346  -1.584  18.221  0.00  0.00    +0.002 A 
ATOM     13  C   UNL     1      33.950  -2.910  18.418  0.00  0.00    +0.037 A 
ATOM     14  C   UNL     1      34.703  -3.767  19.224  0.00  0.00    +0.139 A 
ATOM     15  C   UNL     1      35.872  -3.282  19.835  0.00  0.00    +0.037 A 
ATOM     16  C   UNL     1      36.269  -1.957  19.642  0.00  0.00    +0.002 A 
BRANCH  14  17
ATOM     17  O   UNL     1      34.259  -5.087  19.388  0.00  0.00    -0.474 OA
BRANCH  17  18
ATOM     18  C   UNL     1      33.897  -5.957  18.319  0.00  0.00    +0.223 C 
BRANCH  18  19
ATOM     19  C   UNL     1      35.129  -6.300  17.479  0.00  0.00    +0.120 C 
BRANCH  19  20
ATOM     20  N   UNL     1      34.977  -5.821  16.089  0.00  0.00    -0.267 NA
ATOM     21  C   UNL     1      33.593  -5.434  15.809  0.00  0.00    +0.108 C 
ATOM     22  C   UNL     1      33.650  -4.452  14.654  0.00  0.00    +0.178 C 
ATOM     23  F   UNL     1      33.550  -5.133  13.452  0.00  0.00    -0.236 F 
ATOM     24  C   UNL     1      35.016  -3.797  14.771  0.00  0.00    +0.054 C 
ATOM     25  C   UNL     1      35.782  -4.625  15.798  0.00  0.00    +0.075 C 
ENDBRANCH  19  20
ENDBRANCH  18  19
ENDBRANCH  17  18
ENDBRANCH  14  17
ENDBRANCH   2  11
BRANCH   1  26
ATOM     26  C   UNL     1      38.122  -0.173  17.175  0.00  0.00    -0.008 A 
ATOM     27  C   UNL     1      39.487   0.029  16.898  0.00  0.00    -0.000 A 
ATOM     28  C   UNL     1      40.083  -0.550  15.775  0.00  0.00    +0.036 A 
ATOM     29  C   UNL     1      39.324  -1.344  14.908  0.00  0.00    +0.134 A 
ATOM     30  C   UNL     1      37.970  -1.557  15.172  0.00  0.00    +0.036 A 
ATOM     31  C   UNL     1      37.370  -0.980  16.295  0.00  0.00    -0.000 A 
BRANCH  29  32
ATOM     32  O   UNL     1      39.906  -1.927  13.784  0.00  0.00    -0.506 OA
ATOM     33  H   UNL     1      40.889  -1.798  13.570  0.00  0.00    +0.292 HD
ENDBRANCH  29  32
ENDBRANCH   1  26
BRANCH   7  34
ATOM     34  O   UNL     1      36.894   5.109  14.228  0.00  0.00    -0.505 OA
ATOM     35  H   UNL     1      37.799   5.556  14.318  0.00  0.00    +0.292 HD
ENDBRANCH   7  34
TORSDOF 8
ENDMDL
MODEL        7
REMARK  Name = CMP_0
REMARK  8 active torsions:
REMARK  status: ('A' for Active; 'I' for Inactive)
REMARK    1  A    between atoms: C_1  and  C_17
REMARK    2  A    between atoms: C_5  and  O_6
REMARK    3  A    between atoms: C_11  and  C_21
REMARK    4  A    between atoms: O_13  and  C_14
REMARK    5  A    between atoms: C_24  and  O_27
REMARK    6  A    between atoms: O_27  and  C_28
REMARK    7  A    between atoms: C_28  and  C_29
REMARK    8  A    between atoms: C_29  and  N_30
REMARK                            x       y       z     vdW  Elec       q    Type
REMARK                         _______ _______ _______ _____ _____    ______ ____
ROOT
ATOM      1  C   UNL     1      38.104  -1.129  17.051  0.00  0.00    +0.118 C 
ATOM      2  C   UNL     1      37.379  -0.415  18.226  0.00  0.00    +0.202 C 
ATOM      3  O   UNL     1      36.427   0.550  17.759  0.00  0.00    -0.473 OA
ATOM      4  C   UNL     1      36.495   1.249  16.546  0.00  0.00    +0.145 A 
ATOM      5  C   UNL     1      37.564   1.081  15.647  0.00  0.00    +0.063 A 
ATOM      6  C   UNL     1      37.515   1.684  14.384  0.00  0.00    +0.046 A 
ATOM      7  C   UNL     1      36.429   2.496  14.031  0.00  0.00    +0.134 A 
ATOM      8  C   UNL     1      35.389   2.698  14.943  0.00  0.00    +0.040 A 
ATOM      9  C   UNL     1      35.422   2.076  16.193  0.00  0.00    +0.041 A 
ATOM     10  S   UNL     1      39.016   0.130  16.097  0.00  0.00    -0.103 S 
ENDROOT
BRANCH   2  11
ATOM     11  C   UNL     1      36.708  -1.331  19.244  0.00  0.00    +0.019 A 
ATOM     12  C   UNL     1      37.384  -2.381  19.904  0.00  0.00    +0.002 A 
ATOM     13  C   UNL     1      36.722  -3.172  20.846  0.00  0.00    +0.037 A 
ATOM     14  C   UNL     1      35.386  -2.927  21.171  0.00  0.00    +0.139 A 
ATOM     15  C   UNL     1      34.711  -1.867  20.542  0.00  0.00    +0.037 A 
ATOM     16  C   UNL     1      35.370  -1.076  19.597  0.00  0.00    +0.002 A 
BRANCH  14  17
ATOM     17  O   UNL     1      34.770  -3.752  22.123  0.00  0.00    -0.474 OA
BRANCH  17  18
ATOM     18  C   UNL     1      33.405  -4.159  22.078  0.00  0.00    +0.223 C 
BRANCH  18  19
ATOM     19  C   UNL     1      33.033  -4.601  20.661  0.00  0.00    +0.120 C 
BRANCH  19  20
ATOM     20  N   UNL     1      32.215  -3.576  19.980  0.00  0.00    -0.267 NA
ATOM     21  C   UNL     1      32.258  -3.743  18.526  0.00  0.00    +0.108 C 
ATOM     22  C   UNL     1      31.001  -3.091  17.983  0.00  0.00    +0.178 C 
ATOM     23  F   UNL     1      31.249  -1.760  17.692  0.00  0.00    -0.236 F 
ATOM     24  C   UNL     1      29.992  -3.199  19.114  0.00  0.00    +0.054 C 
ATOM     25  C   UNL     1      30.790  -3.642  20.336  0.00  0.00    +0.075 C 
ENDBRANCH  19  20
ENDBRANCH  18  19
ENDBRANCH  17  18
ENDBRANCH  14  17
ENDBRANCH   2  11
BRANCH   1  26
ATOM     26  C   UNL     1      37.262  -2.002  16.125  0.00  0.00    -0.008 A 
ATOM     27  C   UNL     1      35.920  -2.240  16.477  0.00  0.00    -0.000 A 
ATOM     28  C   UNL     1      35.100  -3.039  15.676  0.00  0.00    +0.036 A 
ATOM     29  C   UNL     1      35.607  -3.615  14.506  0.00  0.00    +0.134 A 
ATOM     30  C   UNL     1      36.935  -3.385  14.142  0.00  0.00    +0.036 A 
ATOM     31  C   UNL     1      37.759  -2.586  14.940  0.00  0.00    -0.000 A 
BRANCH  29  32
ATOM     32  O   UNL     1      34.801  -4.415  13.700  0.00  0.00    -0.506 OA
ATOM     33  H   UNL     1      33.831  -4.594  13.933  0.00  0.00    +0.292 HD
ENDBRANCH  29  32
ENDBRANCH   1  26
BRANCH   7  34
ATOM     34  O   UNL     1      36.377   3.109  12.781  0.00  0.00    -0.505 OA
ATOM     35  H   UNL     1      37.115   2.982  12.098  0.00  0.00    +0.292 HD
ENDBRANCH   7  34
TORSDOF 8
ENDMDL
MODEL        8
REMARK  Name = CMP_0
REMARK  8 active torsions:
REMARK  status: ('A' for Active; 'I' for Inactive)
REMARK    1  A    between atoms: C_1  and  C_17
REMARK    2  A    between atoms: C_5  and  O_6
REMARK    3  A    between atoms: C_11  and  C_21
REMARK    4  A    between atoms: O_13  and  C_14
REMARK    5  A    between atoms: C_24  and  O_27
REMARK    6  A    between atoms: O_27  and  C_28
REMARK    7  A    between atoms: C_28  and  C_29
REMARK    8  A    between atoms: C_29  and  N_30
REMARK                            x       y       z     vdW  Elec       q    Type
REMARK                         _______ _______ _______ _____ _____    ______ ____
ROOT
ATOM      1  C   UNL     1      36.038  -0.981  15.519  0.00  0.00    +0.118 C 
ATOM      2  C   UNL     1      36.055  -2.518  15.749  0.00  0.00    +0.202 C 
ATOM      3  O   UNL     1      37.392  -3.029  15.838  0.00  0.00    -0.473 OA
ATOM      4  C   UNL     1      38.526  -2.473  15.229  0.00  0.00    +0.145 A 
ATOM      5  C   UNL     1      38.450  -1.327  14.418  0.00  0.00    +0.063 A 
ATOM      6  C   UNL     1      39.624  -0.720  13.955  0.00  0.00    +0.046 A 
ATOM      7  C   UNL     1      40.873  -1.280  14.254  0.00  0.00    +0.134 A 
ATOM      8  C   UNL     1      40.944  -2.446  15.023  0.00  0.00    +0.040 A 
ATOM      9  C   UNL     1      39.775  -3.038  15.509  0.00  0.00    +0.041 A 
ATOM     10  S   UNL     1      36.868  -0.635  13.932  0.00  0.00    -0.103 S 
ENDROOT
BRANCH   2  11
ATOM     11  C   UNL     1      35.246  -3.017  16.942  0.00  0.00    +0.019 A 
ATOM     12  C   UNL     1      35.742  -3.951  17.877  0.00  0.00    +0.002 A 
ATOM     13  C   UNL     1      34.961  -4.352  18.965  0.00  0.00    +0.037 A 
ATOM     14  C   UNL     1      33.684  -3.821  19.161  0.00  0.00    +0.139 A 
ATOM     15  C   UNL     1      33.192  -2.869  18.252  0.00  0.00    +0.037 A 
ATOM     16  C   UNL     1      33.969  -2.468  17.162  0.00  0.00    +0.002 A 
BRANCH  14  17
ATOM     17  O   UNL     1      32.945  -4.259  20.268  0.00  0.00    -0.474 OA
BRANCH  17  18
ATOM     18  C   UNL     1      32.484  -3.413  21.319  0.00  0.00    +0.223 C 
BRANCH  18  19
ATOM     19  C   UNL     1      32.973  -3.939  22.671  0.00  0.00    +0.120 C 
BRANCH  19  20
ATOM     20  N   UNL     1      33.059  -2.852  23.667  0.00  0.00    -0.267 NA
ATOM     21  C   UNL     1      31.941  -1.915  23.528  0.00  0.00    +0.108 C 
ATOM     22  C   UNL     1      31.781  -1.237  24.876  0.00  0.00    +0.178 C 
ATOM     23  F   UNL     1      32.552  -0.086  24.918  0.00  0.00    -0.236 F 
ATOM     24  C   UNL     1      32.302  -2.251  25.881  0.00  0.00    +0.054 C 
ATOM     25  C   UNL     1      32.992  -3.332  25.055  0.00  0.00    +0.075 C 
ENDBRANCH  19  20
ENDBRANCH  18  19
ENDBRANCH  17  18
ENDBRANCH  14  17
ENDBRANCH   2  11
BRANCH   1  26
ATOM     26  C   UNL     1      36.598  -0.092  16.626  0.00  0.00    -0.008 A 
ATOM     27  C   UNL     1      36.594   1.301  16.424  0.00  0.00    -0.000 A 
ATOM     28  C   UNL     1      37.102   2.167  17.395  0.00  0.00    +0.036 A 
ATOM     29  C   UNL     1      37.623   1.657  18.589  0.00  0.00    +0.134 A 
ATOM     30  C   UNL     1      37.630   0.278  18.805  0.00  0.00    +0.036 A 
ATOM     31  C   UNL     1      37.123  -0.593  17.837  0.00  0.00    -0.000 A 
BRANCH  29  32
ATOM     32  O   UNL     1      38.133   2.510  19.564  0.00  0.00    -0.506 OA
ATOM     33  H   UNL     1      38.134   3.516  19.440  0.00  0.00    +0.292 HD
ENDBRANCH  29  32
ENDBRANCH   1  26
BRANCH   7  34
ATOM     34  O   UNL     1      42.046  -0.691  13.788  0.00  0.00    -0.505 OA
ATOM     35  H   UNL     1      42.028   0.153  13.229  0.00  0.00    +0.292 HD
ENDBRANCH   7  34
TORSDOF 8
ENDMDL
MODEL        9
REMARK  Name = CMP_0
REMARK  8 active torsions:
REMARK  status: ('A' for Active; 'I' for Inactive)
REMARK    1  A    between atoms: C_1  and  C_17
REMARK    2  A    between atoms: C_5  and  O_6
REMARK    3  A    between atoms: C_11  and  C_21
REMARK    4  A    between atoms: O_13  and  C_14
REMARK    5  A    between atoms: C_24  and  O_27
REMARK    6  A    between atoms: O_27  and  C_28
REMARK    7  A    between atoms: C_28  and  C_29
REMARK    8  A    between atoms: C_29  and  N_30
REMARK                            x       y       z     vdW  Elec       q    Type
REMARK                         _______ _______ _______ _____ _____    ______ ____
ROOT
ATOM      1  C   UNL     1      36.946  -4.081  18.726  0.00  0.00    +0.118 C 
ATOM      2  C   UNL     1      36.537  -2.804  19.512  0.00  0.00    +0.202 C 
ATOM      3  O   UNL     1      36.051  -1.774  18.640  0.00  0.00    -0.473 OA
ATOM      4  C   UNL     1      36.413  -1.596  17.298  0.00  0.00    +0.145 A 
ATOM      5  C   UNL     1      37.349  -2.432  16.661  0.00  0.00    +0.063 A 
ATOM      6  C   UNL     1      37.566  -2.312  15.283  0.00  0.00    +0.046 A 
ATOM      7  C   UNL     1      36.895  -1.328  14.545  0.00  0.00    +0.134 A 
ATOM      8  C   UNL     1      36.000  -0.469  15.189  0.00  0.00    +0.040 A 
ATOM      9  C   UNL     1      35.760  -0.604  16.558  0.00  0.00    +0.041 A 
ATOM     10  S   UNL     1      38.300  -3.637  17.586  0.00  0.00    -0.103 S 
ENDROOT
BRANCH   2  11
ATOM     11  C   UNL     1      35.539  -3.016  20.646  0.00  0.00    +0.019 A 
ATOM     12  C   UNL     1      34.252  -2.436  20.661  0.00  0.00    +0.002 A 
ATOM     13  C   UNL     1      33.371  -2.688  21.716  0.00  0.00    +0.037 A 
ATOM     14  C   UNL     1      33.737  -3.534  22.766  0.00  0.00    +0.139 A 
ATOM     15  C   UNL     1      35.005  -4.139  22.746  0.00  0.00    +0.037 A 
ATOM     16  C   UNL     1      35.889  -3.887  21.694  0.00  0.00    +0.002 A 
BRANCH  14  17
ATOM     17  O   UNL     1      32.815  -3.751  23.799  0.00  0.00    -0.474 OA
BRANCH  17  18
ATOM     18  C   UNL     1      33.050  -3.441  25.170  0.00  0.00    +0.223 C 
BRANCH  18  19
ATOM     19  C   UNL     1      32.523  -2.041  25.492  0.00  0.00    +0.120 C 
BRANCH  19  20
ATOM     20  N   UNL     1      31.183  -2.104  26.111  0.00  0.00    -0.267 NA
ATOM     21  C   UNL     1      31.199  -1.553  27.468  0.00  0.00    +0.108 C 
ATOM     22  C   UNL     1      29.777  -1.122  27.771  0.00  0.00    +0.178 C 
ATOM     23  F   UNL     1      29.083  -2.167  28.359  0.00  0.00    -0.236 F 
ATOM     24  C   UNL     1      29.176  -0.795  26.414  0.00  0.00    +0.054 C 
ATOM     25  C   UNL     1      30.173  -1.320  25.386  0.00  0.00    +0.075 C 
ENDBRANCH  19  20
ENDBRANCH  18  19
ENDBRANCH  17  18
ENDBRANCH  14  17
ENDBRANCH   2  11
BRANCH   1  26
ATOM     26  C   UNL     1      35.847  -4.842  17.990  0.00  0.00    -0.008 A 
ATOM     27  C   UNL     1      36.231  -5.769  17.002  0.00  0.00    -0.000 A 
ATOM     28  C   UNL     1      35.272  -6.490  16.286  0.00  0.00    +0.036 A 
ATOM     29  C   UNL     1      33.911  -6.298  16.544  0.00  0.00    +0.134 A 
ATOM     30  C   UNL     1      33.515  -5.385  17.524  0.00  0.00    +0.036 A 
ATOM     31  C   UNL     1      34.471  -4.662  18.244  0.00  0.00    -0.000 A 
BRANCH  29  32
ATOM     32  O   UNL     1      32.945  -7.010  15.836  0.00  0.00    -0.506 OA
ATOM     33  H   UNL     1      33.201  -7.685  15.125  0.00  0.00    +0.292 HD
ENDBRANCH  29  32
ENDBRANCH   1  26
BRANCH   7  34
ATOM     34  O   UNL     1      37.114  -1.193  13.176  0.00  0.00    -0.505 OA
ATOM     35  H   UNL     1      37.757  -1.800  12.680  0.00  0.00    +0.292 HD
ENDBRANCH   7  34
TORSDOF 8
ENDMDL
MODEL       10
REMARK  Name = CMP_0
REMARK  8 active torsions:
REMARK  status: ('A' for Active; 'I' for Inactive)
REMARK    1  A    between atoms: C_1  and  C_17
REMARK    2  A    between atoms: C_5  and  O_6
REMARK    3  A    between atoms: C_11  and  C_21
REMARK    4  A    between atoms: O_13  and  C_14
REMARK    5  A    between atoms: C_24  and  O_27
REMARK    6  A    between atoms: O_27  and  C_28
REMARK    7  A    between atoms: C_28  and  C_29
REMARK    8  A    between atoms: C_29  and  N_30
REMARK                            x       y       z     vdW  Elec       q    Type
REMARK                         _______ _______ _______ _____ _____    ______ ____
ROOT
ATOM      1  C   UNL     1      37.415  -3.317  18.257  0.00  0.00    +0.118 C 
ATOM      2  C   UNL     1      37.090  -2.371  19.446  0.00  0.00    +0.202 C 
ATOM      3  O   UNL     1      36.791  -1.040  19.002  0.00  0.00    -0.473 OA
ATOM      4  C   UNL     1      37.275  -0.437  17.834  0.00  0.00    +0.145 A 
ATOM      5  C   UNL     1      38.159  -1.099  16.963  0.00  0.00    +0.063 A 
ATOM      6  C   UNL     1      38.496  -0.517  15.735  0.00  0.00    +0.046 A 
ATOM      7  C   UNL     1      37.998   0.747  15.393  0.00  0.00    +0.134 A 
ATOM      8  C   UNL     1      37.156   1.424  16.279  0.00  0.00    +0.040 A 
ATOM      9  C   UNL     1      36.796   0.834  17.493  0.00  0.00    +0.041 A 
ATOM     10  S   UNL     1      38.895  -2.673  17.407  0.00  0.00    -0.103 S 
ENDROOT
BRANCH   2  11
ATOM     11  C   UNL     1      35.988  -2.846  20.388  0.00  0.00    +0.019 A 
ATOM     12  C   UNL     1      36.182  -3.851  21.360  0.00  0.00    +0.002 A 
ATOM     13  C   UNL     1      35.141  -4.228  22.212  0.00  0.00    +0.037 A 
ATOM     14  C   UNL     1      33.894  -3.603  22.134  0.00  0.00    +0.139 A 
ATOM     15  C   UNL     1      33.698  -2.582  21.189  0.00  0.00    +0.037 A 
ATOM     16  C   UNL     1      34.736  -2.205  20.334  0.00  0.00    +0.002 A 
BRANCH  14  17
ATOM     17  O   UNL     1      32.884  -4.021  23.012  0.00  0.00    -0.474 OA
BRANCH  17  18
ATOM     18  C   UNL     1      32.838  -3.704  24.401  0.00  0.00    +0.223 C 
BRANCH  18  19
ATOM     19  C   UNL     1      32.084  -2.390  24.618  0.00  0.00    +0.120 C 
BRANCH  19  20
ATOM     20  N   UNL     1      32.963  -1.361  25.210  0.00  0.00    -0.267 NA
ATOM     21  C   UNL     1      32.277  -0.071  25.310  0.00  0.00    +0.108 C 
ATOM     22  C   UNL     1      32.982   0.704  26.407  0.00  0.00    +0.178 C 
ATOM     23  F   UNL     1      34.010   1.457  25.865  0.00  0.00    -0.236 F 
ATOM     24  C   UNL     1      33.547  -0.363  27.331  0.00  0.00    +0.054 C 
ATOM     25  C   UNL     1      33.390  -1.682  26.579  0.00  0.00    +0.075 C 
ENDBRANCH  19  20
ENDBRANCH  18  19
ENDBRANCH  17  18
ENDBRANCH  14  17
ENDBRANCH   2  11
BRANCH   1  26
ATOM     26  C   UNL     1      36.300  -3.607  17.256  0.00  0.00    -0.008 A 
ATOM     27  C   UNL     1      36.580  -4.479  16.187  0.00  0.00    -0.000 A 
ATOM     28  C   UNL     1      35.605  -4.776  15.232  0.00  0.00    +0.036 A 
ATOM     29  C   UNL     1      34.330  -4.207  15.328  0.00  0.00    +0.134 A 
ATOM     30  C   UNL     1      34.036  -3.344  16.386  0.00  0.00    +0.036 A 
ATOM     31  C   UNL     1      35.009  -3.045  17.344  0.00  0.00    -0.000 A 
BRANCH  29  32
ATOM     32  O   UNL     1      33.349  -4.495  14.382  0.00  0.00    -0.506 OA
ATOM     33  H   UNL     1      33.529  -5.124  13.608  0.00  0.00    +0.292 HD
ENDBRANCH  29  32
ENDBRANCH   1  26
BRANCH   7  34
ATOM     34  O   UNL     1      38.338   1.340  14.178  0.00  0.00    -0.505 OA
ATOM     35  H   UNL     1      38.946   0.875  13.515  0.00  0.00    +0.292 HD
ENDBRANCH   7  34
TORSDOF 8
ENDMDL
MODEL        2
REMARK  Name = CMP_0
REMARK  8 active torsions:
REMARK  status: ('A' for Active; 'I' for Inactive)
REMARK    1  A    between atoms: C_1  and  C_17
REMARK    2  A    between atoms: C_5  and  O_6
REMARK    3  A    between atoms: C_11  and  C_21
REMARK    4  A    between atoms: O_13  and  C_14
REMARK    5  A    between atoms: C_24  and  O_27
REMARK    6  A    between atoms: O_27  and  C_28
REMARK    7  A    between atoms: C_28  and  C_29
REMARK    8  A    between atoms: C_29  and  N_30
REMARK                            x       y       z     vdW  Elec       q    Type
REMARK                         _______ _______ _______ _____ _____    ______ ____
ROOT
ATOM      1  C   UNL     1      36.252  -3.154  17.782  0.00  0.00    +0.118 C 
ATOM      2  C   UNL     1      36.137  -2.044  18.843  0.00  0.00    +0.202 C 
ATOM      3  O   UNL     1      35.396  -0.930  18.357  0.00  0.00    -0.473 OA
ATOM      4  C   UNL     1      35.625  -0.321  17.121  0.00  0.00    +0.145 A 
ATOM      5  C   UNL     1      36.389  -0.941  16.108  0.00  0.00    +0.063 A 
ATOM      6  C   UNL     1      36.518  -0.313  14.862  0.00  0.00    +0.046 A 
ATOM      7  C   UNL     1      35.919   0.927  14.623  0.00  0.00    +0.134 A 
ATOM      8  C   UNL     1      35.174   1.544  15.634  0.00  0.00    +0.040 A 
ATOM      9  C   UNL     1      35.025   0.919  16.874  0.00  0.00    +0.041 A 
ATOM     10  S   UNL     1      37.174  -2.554  16.318  0.00  0.00    -0.103 S 
ENDROOT
BRANCH   2  11
ATOM     11  C   UNL     1      35.524  -2.561  20.127  0.00  0.00    +0.019 A 
ATOM     12  C   UNL     1      36.275  -3.389  20.975  0.00  0.00    +0.002 A 
ATOM     13  C   UNL     1      35.705  -3.921  22.135  0.00  0.00    +0.037 A 
ATOM     14  C   UNL     1      34.365  -3.641  22.460  0.00  0.00    +0.139 A 
ATOM     15  C   UNL     1      33.612  -2.826  21.608  0.00  0.00    +0.037 A 
ATOM     16  C   UNL     1      34.181  -2.293  20.449  0.00  0.00    +0.002 A 
BRANCH  14  17
ATOM     17  O   UNL     1      33.746  -4.151  23.611  0.00  0.00    -0.474 OA
BRANCH  17  18
ATOM     18  C   UNL     1      32.629  -3.549  24.260  0.00  0.00    +0.223 C 
BRANCH  18  19
ATOM     19  C   UNL     1      32.950  -3.323  25.738  0.00  0.00    +0.120 C 
BRANCH  19  20
ATOM     20  N   UNL     1      32.359  -2.059  26.223  0.00  0.00    -0.267 NA
ATOM     21  C   UNL     1      32.550  -0.944  25.288  0.00  0.00    +0.108 C 
ATOM     22  C   UNL     1      32.556   0.332  26.120  0.00  0.00    +0.178 C 
ATOM     23  F   UNL     1      33.559   1.188  25.697  0.00  0.00    -0.236 F 
ATOM     24  C   UNL     1      32.797  -0.118  27.553  0.00  0.00    +0.054 C 
ATOM     25  C   UNL     1      32.984  -1.623  27.474  0.00  0.00    +0.075 C 
ENDBRANCH  19  20
ENDBRANCH  18  19
ENDBRANCH  17  18
ENDBRANCH  14  17
ENDBRANCH   2  11
BRANCH   1  26
ATOM     26  C   UNL     1      34.932  -3.833  17.439  0.00  0.00    -0.008 A 
ATOM     27  C   UNL     1      34.716  -5.157  17.867  0.00  0.00    -0.000 A 
ATOM     28  C   UNL     1      33.500  -5.799  17.621  0.00  0.00    +0.036 A 
ATOM     29  C   UNL     1      32.477  -5.131  16.945  0.00  0.00    +0.134 A 
ATOM     30  C   UNL     1      32.675  -3.814  16.518  0.00  0.00    +0.036 A 
ATOM     31  C   UNL     1      33.889  -3.167  16.765  0.00  0.00    -0.000 A 
BRANCH  29  32
ATOM     32  O   UNL     1      31.269  -5.783  16.707  0.00  0.00    -0.506 OA
ATOM     33  H   UNL     1      30.508  -5.325  16.220  0.00  0.00    +0.292 HD
ENDBRANCH  29  32
ENDBRANCH   1  26
BRANCH   7  34
ATOM     34  O   UNL     1      36.069   1.535  13.379  0.00  0.00    -0.505 OA
ATOM     35  H   UNL     1      35.646   2.433  13.174  0.00  0.00    +0.292 HD
ENDBRANCH   7  34
TORSDOF 8
ENDMDL
MODEL        3
REMARK  Name = CMP_0
REMARK  8 active torsions:
REMARK  status: ('A' for Active; 'I' for Inactive)
REMARK    1  A    between atoms: C_1  and  C_17
REMARK    2  A    between atoms: C_5  and  O_6
REMARK    3  A    between atoms: C_11  and  C_21
REMARK    4  A    between atoms: O_13  and  C_14
REMARK    5  A    between atoms: C_24  and  O_27
REMARK    6  A    between atoms: O_27  and  C_28
REMARK    7  A    between atoms: C_28  and  C_29
REMARK    8  A    between atoms: C_29  and  N_30
REMARK                            x       y       z     vdW  Elec       q    Type
REMARK                         _______ _______ _______ _____ _____    ______ ____
ROOT
ATOM      1  C   UNL     1      37.610  -1.168  17.256  0.00  0.00    +0.118 C 
ATOM      2  C   UNL     1      36.728  -0.447  18.294  0.00  0.00    +0.202 C 
ATOM      3  O   UNL     1      35.672   0.276  17.672  0.00  0.00    -0.473 OA
ATOM      4  C   UNL     1      35.851   1.138  16.587  0.00  0.00    +0.145 A 
ATOM      5  C   UNL     1      37.028   1.130  15.808  0.00  0.00    +0.063 A 
ATOM      6  C   UNL     1      37.115   1.965  14.686  0.00  0.00    +0.046 A 
ATOM      7  C   UNL     1      36.060   2.817  14.347  0.00  0.00    +0.134 A 
ATOM      8  C   UNL     1      34.900   2.830  15.130  0.00  0.00    +0.040 A 
ATOM      9  C   UNL     1      34.796   1.990  16.240  0.00  0.00    +0.041 A 
ATOM     10  S   UNL     1      38.428   0.044  16.154  0.00  0.00    -0.103 S 
ENDROOT
BRANCH   2  11
ATOM     11  C   UNL     1      36.171  -1.413  19.318  0.00  0.00    +0.019 A 
ATOM     12  C   UNL     1      37.044  -2.219  20.066  0.00  0.00    +0.002 A 
ATOM     13  C   UNL     1      36.543  -3.155  20.974  0.00  0.00    +0.037 A 
ATOM     14  C   UNL     1      35.154  -3.309  21.141  0.00  0.00    +0.139 A 
ATOM     15  C   UNL     1      34.284  -2.515  20.386  0.00  0.00    +0.037 A 
ATOM     16  C   UNL     1      34.784  -1.577  19.479  0.00  0.00    +0.002 A 
BRANCH  14  17
ATOM     17  O   UNL     1      34.601  -4.235  22.038  0.00  0.00    -0.474 OA
BRANCH  17  18
ATOM     18  C   UNL     1      33.403  -4.022  22.780  0.00  0.00    +0.223 C 
BRANCH  18  19
ATOM     19  C   UNL     1      33.746  -3.634  24.217  0.00  0.00    +0.120 C 
BRANCH  19  20
ATOM     20  N   UNL     1      32.964  -2.460  24.652  0.00  0.00    -0.267 NA
ATOM     21  C   UNL     1      32.074  -2.754  25.782  0.00  0.00    +0.108 C 
ATOM     22  C   UNL     1      30.903  -1.784  25.684  0.00  0.00    +0.178 C 
ATOM     23  F   UNL     1      29.706  -2.435  25.938  0.00  0.00    -0.236 F 
ATOM     24  C   UNL     1      30.936  -1.248  24.261  0.00  0.00    +0.054 C 
ATOM     25  C   UNL     1      32.083  -1.980  23.585  0.00  0.00    +0.075 C 
ENDBRANCH  19  20
ENDBRANCH  18  19
ENDBRANCH  17  18
ENDBRANCH  14  17
ENDBRANCH   2  11
BRANCH   1  26
ATOM     26  C   UNL     1      36.907  -2.296  16.512  0.00  0.00    -0.008 A 
ATOM     27  C   UNL     1      37.459  -3.591  16.564  0.00  0.00    -0.000 A 
ATOM     28  C   UNL     1      36.819  -4.666  15.940  0.00  0.00    +0.036 A 
ATOM     29  C   UNL     1      35.617  -4.469  15.259  0.00  0.00    +0.134 A 
ATOM     30  C   UNL     1      35.054  -3.189  15.203  0.00  0.00    +0.036 A 
ATOM     31  C   UNL     1      35.690  -2.111  15.827  0.00  0.00    -0.000 A 
BRANCH  29  32
ATOM     32  O   UNL     1      34.990  -5.549  14.643  0.00  0.00    -0.506 OA
ATOM     33  H   UNL     1      34.116  -5.438  14.141  0.00  0.00    +0.292 HD
ENDBRANCH  29  32
ENDBRANCH   1  26
BRANCH   7  34
ATOM     34  O   UNL     1      36.174   3.644  13.232  0.00  0.00    -0.505 OA
ATOM     35  H   UNL     1      35.426   4.272  12.960  0.00  0.00    +0.292 HD
ENDBRANCH   7  34
TORSDOF 8
ENDMDL
MODEL        4
REMARK  Name = CMP_0
REMARK  8 active torsions:
REMARK  status: ('A' for Active; 'I' for Inactive)
REMARK    1  A    between atoms: C_1  and  C_17
REMARK    2  A    between atoms: C_5  and  O_6
REMARK    3  A    between atoms: C_11  and  C_21
REMARK    4  A    between atoms: O_13  and  C_14
REMARK    5  A    between atoms: C_24  and  O_27
REMARK    6  A    between atoms: O_27  and  C_28
REMARK    7  A    between atoms: C_28  and  C_29
REMARK    8  A    between atoms: C_29  and  N_30
REMARK                            x       y       z     vdW  Elec       q    Type
REMARK                         _______ _______ _______ _____ _____    ______ ____
ROOT
ATOM      1  C   UNL     1      36.622  -3.142  17.820  0.00  0.00    +0.118 C 
ATOM      2  C   UNL     1      35.937  -3.187  16.441  0.00  0.00    +0.202 C 
ATOM      3  O   UNL     1      34.634  -2.615  16.484  0.00  0.00    -0.473 OA
ATOM      4  C   UNL     1      33.676  -2.931  17.451  0.00  0.00    +0.145 A 
ATOM      5  C   UNL     1      34.010  -3.597  18.650  0.00  0.00    +0.063 A 
ATOM      6  C   UNL     1      33.018  -3.817  19.615  0.00  0.00    +0.046 A 
ATOM      7  C   UNL     1      31.701  -3.403  19.390  0.00  0.00    +0.134 A 
ATOM      8  C   UNL     1      31.372  -2.754  18.195  0.00  0.00    +0.040 A 
ATOM      9  C   UNL     1      32.357  -2.515  17.234  0.00  0.00    +0.041 A 
ATOM     10  S   UNL     1      35.688  -4.142  19.037  0.00  0.00    -0.103 S 
ENDROOT
BRANCH   2  11
ATOM     11  C   UNL     1      36.774  -2.505  15.380  0.00  0.00    +0.019 A 
ATOM     12  C   UNL     1      36.307  -1.330  14.771  0.00  0.00    +0.002 A 
ATOM     13  C   UNL     1      37.041  -0.720  13.750  0.00  0.00    +0.037 A 
ATOM     14  C   UNL     1      38.253  -1.285  13.312  0.00  0.00    +0.139 A 
ATOM     15  C   UNL     1      38.712  -2.463  13.910  0.00  0.00    +0.037 A 
ATOM     16  C   UNL     1      37.980  -3.073  14.932  0.00  0.00    +0.002 A 
BRANCH  14  17
ATOM     17  O   UNL     1      39.025  -0.713  12.291  0.00  0.00    -0.474 OA
BRANCH  17  18
ATOM     18  C   UNL     1      39.173   0.690  12.081  0.00  0.00    +0.223 C 
BRANCH  18  19
ATOM     19  C   UNL     1      40.073   1.282  13.164  0.00  0.00    +0.120 C 
BRANCH  19  20
ATOM     20  N   UNL     1      39.346   2.285  13.969  0.00  0.00    -0.267 NA
ATOM     21  C   UNL     1      38.891   1.758  15.261  0.00  0.00    +0.108 C 
ATOM     22  C   UNL     1      37.652   2.555  15.650  0.00  0.00    +0.178 C 
ATOM     23  F   UNL     1      36.671   1.719  16.157  0.00  0.00    -0.236 F 
ATOM     24  C   UNL     1      37.182   3.227  14.369  0.00  0.00    +0.054 C 
ATOM     25  C   UNL     1      38.130   2.736  13.288  0.00  0.00    +0.075 C 
ENDBRANCH  19  20
ENDBRANCH  18  19
ENDBRANCH  17  18
ENDBRANCH  14  17
ENDBRANCH   2  11
BRANCH   1  26
ATOM     26  C   UNL     1      36.956  -1.738  18.308  0.00  0.00    -0.008 A 
ATOM     27  C   UNL     1      38.255  -1.236  18.098  0.00  0.00    -0.000 A 
ATOM     28  C   UNL     1      38.590   0.065  18.481  0.00  0.00    +0.036 A 
ATOM     29  C   UNL     1      37.634   0.890  19.078  0.00  0.00    +0.134 A 
ATOM     30  C   UNL     1      36.338   0.407  19.289  0.00  0.00    +0.036 A 
ATOM     31  C   UNL     1      35.998  -0.893  18.904  0.00  0.00    -0.000 A 
BRANCH  29  32
ATOM     32  O   UNL     1      37.981   2.185  19.455  0.00  0.00    -0.506 OA
ATOM     33  H   UNL     1      37.309   2.808  19.889  0.00  0.00    +0.292 HD
ENDBRANCH  29  32
ENDBRANCH   1  26
BRANCH   7  34
ATOM     34  O   UNL     1      30.730  -3.639  20.360  0.00  0.00    -0.505 OA
ATOM     35  H   UNL     1      29.768  -3.351  20.228  0.00  0.00    +0.292 HD
ENDBRANCH   7  34
TORSDOF 8
ENDMDL
MODEL        5
REMARK  Name = CMP_0
REMARK  8 active torsions:
REMARK  status: ('A' for Active; 'I' for Inactive)
REMARK    1  A    between atoms: C_1  and  C_17
REMARK    2  A    between atoms: C_5  and  O_6
REMARK    3  A    between atoms: C_11  and  C_21
REMARK    4  A    between atoms: O_13  and  C_14
REMARK    5  A    between atoms: C_24  and  O_27
REMARK    6  A    between atoms: O_27  and  C_28
REMARK    7  A    between atoms: C_28  and  C_29
REMARK    8  A    between atoms: C_29  and  N_30
REMARK                            x       y       z     vdW  Elec       q    Type
REMARK                         _______ _______ _______ _____ _____    ______ ____
ROOT
ATOM      1  C   UNL     1      36.677  -2.964  17.498  0.00  0.00    +0.118 C 
ATOM      2  C   UNL     1      35.848  -2.942  16.200  0.00  0.00    +0.202 C 
ATOM      3  O   UNL     1      34.542  -2.422  16.422  0.00  0.00    -0.473 OA
ATOM      4  C   UNL     1      33.704  -2.837  17.460  0.00  0.00    +0.145 A 
ATOM      5  C   UNL     1      34.186  -3.569  18.567  0.00  0.00    +0.063 A 
ATOM      6  C   UNL     1      33.310  -3.889  19.614  0.00  0.00    +0.046 A 
ATOM      7  C   UNL     1      31.966  -3.509  19.560  0.00  0.00    +0.134 A 
ATOM      8  C   UNL     1      31.490  -2.794  18.456  0.00  0.00    +0.040 A 
ATOM      9  C   UNL     1      32.358  -2.456  17.415  0.00  0.00    +0.041 A 
ATOM     10  S   UNL     1      35.911  -4.077  18.734  0.00  0.00    -0.103 S 
ENDROOT
BRANCH   2  11
ATOM     11  C   UNL     1      36.545  -2.160  15.107  0.00  0.00    +0.019 A 
ATOM     12  C   UNL     1      36.210  -0.815  14.889  0.00  0.00    +0.002 A 
ATOM     13  C   UNL     1      36.802  -0.096  13.847  0.00  0.00    +0.037 A 
ATOM     14  C   UNL     1      37.735  -0.718  12.996  0.00  0.00    +0.139 A 
ATOM     15  C   UNL     1      38.059  -2.062  13.206  0.00  0.00    +0.037 A 
ATOM     16  C   UNL     1      37.468  -2.782  14.248  0.00  0.00    +0.002 A 
BRANCH  14  17
ATOM     17  O   UNL     1      38.356  -0.041  11.937  0.00  0.00    -0.474 OA
BRANCH  17  18
ATOM     18  C   UNL     1      39.261   1.050  12.096  0.00  0.00    +0.223 C 
BRANCH  18  19
ATOM     19  C   UNL     1      40.675   0.607  11.721  0.00  0.00    +0.120 C 
BRANCH  19  20
ATOM     20  N   UNL     1      41.428   0.168  12.912  0.00  0.00    -0.267 NA
ATOM     21  C   UNL     1      41.545  -1.292  13.008  0.00  0.00    +0.108 C 
ATOM     22  C   UNL     1      41.680  -1.628  14.487  0.00  0.00    +0.178 C 
ATOM     23  F   UNL     1      40.900  -2.726  14.813  0.00  0.00    -0.236 F 
ATOM     24  C   UNL     1      41.206  -0.388  15.231  0.00  0.00    +0.054 C 
ATOM     25  C   UNL     1      40.759   0.580  14.148  0.00  0.00    +0.075 C 
ENDBRANCH  19  20
ENDBRANCH  18  19
ENDBRANCH  17  18
ENDBRANCH  14  17
ENDBRANCH   2  11
BRANCH   1  26
ATOM     26  C   UNL     1      37.022  -1.585  18.046  0.00  0.00    -0.008 A 
ATOM     27  C   UNL     1      38.336  -1.102  17.894  0.00  0.00    -0.000 A 
ATOM     28  C   UNL     1      38.682   0.179  18.334  0.00  0.00    +0.036 A 
ATOM     29  C   UNL     1      37.723   1.000  18.929  0.00  0.00    +0.134 A 
ATOM     30  C   UNL     1      36.412   0.536  19.083  0.00  0.00    +0.036 A 
ATOM     31  C   UNL     1      36.061  -0.744  18.642  0.00  0.00    -0.000 A 
BRANCH  29  32
ATOM     32  O   UNL     1      38.082   2.275  19.363  0.00  0.00    -0.506 OA
ATOM     33  H   UNL     1      37.409   2.895  19.798  0.00  0.00    +0.292 HD
ENDBRANCH  29  32
ENDBRANCH   1  26
BRANCH   7  34
ATOM     34  O   UNL     1      31.113  -3.846  20.609  0.00  0.00    -0.505 OA
ATOM     35  H   UNL     1      30.134  -3.585  20.600  0.00  0.00    +0.292 HD
ENDBRANCH   7  34
TORSDOF 8
ENDMDL
MODEL        6
REMARK  Name = CMP_0
REMARK  8 active torsions:
REMARK  status: ('A' for Active; 'I' for Inactive)
REMARK    1  A    between atoms: C_1  and  C_17
REMARK    2  A    between atoms: C_5  and  O_6
REMARK    3  A    between atoms: C_11  and  C_21
REMARK    4  A    between atoms: O_13  and  C_14
REMARK    5  A    between atoms: C_24  and  O_27
REMARK    6  A    between atoms: O_27  and  C_28
REMARK    7  A    between atoms: C_28  and  C_29
REMARK    8  A    between atoms: C_29  and  N_30
REMARK                            x       y       z     vdW  Elec       q    Type
REMARK                         _______ _______ _______ _____ _____    ______ ____
ROOT
ATOM      1  C   UNL     1      37.581  -2.918  18.258  0.00  0.00    +0.118 C 
ATOM      2  C   UNL     1      37.204  -2.010  19.442  0.00  0.00    +0.202 C 
ATOM      3  O   UNL     1      36.744  -0.737  19.001  0.00  0.00    -0.473 OA
ATOM      4  C   UNL     1      37.409   0.045  18.053  0.00  0.00    +0.145 A 
ATOM      5  C   UNL     1      38.416  -0.482  17.216  0.00  0.00    +0.063 A 
ATOM      6  C   UNL     1      38.990   0.335  16.233  0.00  0.00    +0.046 A 
ATOM      7  C   UNL     1      38.592   1.667  16.091  0.00  0.00    +0.134 A 
ATOM      8  C   UNL     1      37.602   2.189  16.931  0.00  0.00    +0.040 A 
ATOM      9  C   UNL     1      37.012   1.379  17.903  0.00  0.00    +0.041 A 
ATOM     10  S   UNL     1      38.972  -2.197  17.310  0.00  0.00    -0.103 S 
ENDROOT
BRANCH   2  11
ATOM     11  C   UNL     1      36.169  -2.660  20.335  0.00  0.00    +0.019 A 
ATOM     12  C   UNL     1      34.837  -2.217  20.298  0.00  0.00    +0.002 A 
ATOM     13  C   UNL     1      33.882  -2.768  21.157  0.00  0.00    +0.037 A 
ATOM     14  C   UNL     1      34.248  -3.767  22.079  0.00  0.00    +0.139 A 
ATOM     15  C   UNL     1      35.578  -4.198  22.125  0.00  0.00    +0.037 A 
ATOM     16  C   UNL     1      36.533  -3.649  21.266  0.00  0.00    +0.002 A 
BRANCH  14  17
ATOM     17  O   UNL     1      33.328  -4.349  22.962  0.00  0.00    -0.474 OA
BRANCH  17  18
ATOM     18  C   UNL     1      32.494  -3.617  23.857  0.00  0.00    +0.223 C 
BRANCH  18  19
ATOM     19  C   UNL     1      33.317  -3.130  25.050  0.00  0.00    +0.120 C 
BRANCH  19  20
ATOM     20  N   UNL     1      32.456  -2.882  26.223  0.00  0.00    -0.267 NA
ATOM     21  C   UNL     1      31.103  -2.446  25.857  0.00  0.00    +0.108 C 
ATOM     22  C   UNL     1      30.585  -1.599  27.012  0.00  0.00    +0.178 C 
ATOM     23  F   UNL     1      29.937  -0.470  26.539  0.00  0.00    -0.236 F 
ATOM     24  C   UNL     1      31.816  -1.218  27.821  0.00  0.00    +0.054 C 
ATOM     25  C   UNL     1      32.992  -1.806  27.060  0.00  0.00    +0.075 C 
ENDBRANCH  19  20
ENDBRANCH  18  19
ENDBRANCH  17  18
ENDBRANCH  14  17
ENDBRANCH   2  11
BRANCH   1  26
ATOM     26  C   UNL     1      36.402  -3.340  17.390  0.00  0.00    -0.008 A 
ATOM     27  C   UNL     1      36.110  -2.594  16.231  0.00  0.00    -0.000 A 
ATOM     28  C   UNL     1      35.072  -2.976  15.378  0.00  0.00    +0.036 A 
ATOM     29  C   UNL     1      34.309  -4.111  15.663  0.00  0.00    +0.134 A 
ATOM     30  C   UNL     1      34.591  -4.864  16.808  0.00  0.00    +0.036 A 
ATOM     31  C   UNL     1      35.630  -4.487  17.663  0.00  0.00    -0.000 A 
BRANCH  29  32
ATOM     32  O   UNL     1      33.277  -4.481  14.804  0.00  0.00    -0.506 OA
ATOM     33  H   UNL     1      32.707  -5.299  14.983  0.00  0.00    +0.292 HD
ENDBRANCH  29  32
ENDBRANCH   1  26
BRANCH   7  34
ATOM     34  O   UNL     1      39.184   2.462  15.111  0.00  0.00    -0.505 OA
ATOM     35  H   UNL     1      38.917   3.431  14.983  0.00  0.00    +0.292 HD
ENDBRANCH   7  34
TORSDOF 8
ENDMDL
MODEL        7
REMARK  Name = CMP_0
REMARK  8 active torsions:
REMARK  status: ('A' for Active; 'I' for Inactive)
REMARK    1  A    between atoms: C_1  and  C_17
REMARK    2  A    between atoms: C_5  and  O_6
REMARK    3  A    between atoms: C_11  and  C_21
REMARK    4  A    between atoms: O_13  and  C_14
REMARK    5  A    between atoms: C_24  and  O_27
REMARK    6  A    between atoms: O_27  and  C_28
REMARK    7  A    between atoms: C_28  and  C_29
REMARK    8  A    between atoms: C_29  and  N_30
REMARK                            x       y       z     vdW  Elec       q    Type
REMARK                         _______ _______ _______ _____ _____    ______ ____
ROOT
ATOM      1  C   UNL     1      38.084   0.324  16.919  0.00  0.00    +0.118 C 
ATOM      2  C   UNL     1      36.946   0.578  17.925  0.00  0.00    +0.202 C 
ATOM      3  O   UNL     1      35.767   1.041  17.276  0.00  0.00    -0.473 OA
ATOM      4  C   UNL     1      35.749   2.075  16.337  0.00  0.00    +0.145 A 
ATOM      5  C   UNL     1      36.925   2.540  15.710  0.00  0.00    +0.063 A 
ATOM      6  C   UNL     1      36.832   3.527  14.719  0.00  0.00    +0.046 A 
ATOM      7  C   UNL     1      35.592   4.067  14.365  0.00  0.00    +0.134 A 
ATOM      8  C   UNL     1      34.430   3.612  14.998  0.00  0.00    +0.040 A 
ATOM      9  C   UNL     1      34.511   2.617  15.975  0.00  0.00    +0.041 A 
ATOM     10  S   UNL     1      38.565   1.881  16.083  0.00  0.00    -0.103 S 
ENDROOT
BRANCH   2  11
ATOM     11  C   UNL     1      36.642  -0.657  18.746  0.00  0.00    +0.019 A 
ATOM     12  C   UNL     1      35.316  -0.951  19.101  0.00  0.00    +0.002 A 
ATOM     13  C   UNL     1      35.025  -2.055  19.906  0.00  0.00    +0.037 A 
ATOM     14  C   UNL     1      36.061  -2.880  20.381  0.00  0.00    +0.139 A 
ATOM     15  C   UNL     1      37.384  -2.579  20.038  0.00  0.00    +0.037 A 
ATOM     16  C   UNL     1      37.676  -1.477  19.232  0.00  0.00    +0.002 A 
BRANCH  14  17
ATOM     17  O   UNL     1      35.822  -3.998  21.193  0.00  0.00    -0.474 OA
BRANCH  17  18
ATOM     18  C   UNL     1      36.532  -5.231  21.098  0.00  0.00    +0.223 C 
BRANCH  18  19
ATOM     19  C   UNL     1      35.684  -6.260  20.350  0.00  0.00    +0.120 C 
BRANCH  19  20
ATOM     20  N   UNL     1      36.155  -6.427  18.961  0.00  0.00    -0.267 NA
ATOM     21  C   UNL     1      37.564  -6.054  18.786  0.00  0.00    +0.108 C 
ATOM     22  C   UNL     1      37.726  -5.607  17.339  0.00  0.00    +0.178 C 
ATOM     23  F   UNL     1      38.509  -4.467  17.264  0.00  0.00    -0.236 F 
ATOM     24  C   UNL     1      36.316  -5.329  16.839  0.00  0.00    +0.054 C 
ATOM     25  C   UNL     1      35.413  -5.564  18.038  0.00  0.00    +0.075 C 
ENDBRANCH  19  20
ENDBRANCH  18  19
ENDBRANCH  17  18
ENDBRANCH  14  17
ENDBRANCH   2  11
BRANCH   1  26
ATOM     26  C   UNL     1      37.828  -0.833  15.961  0.00  0.00    -0.008 A 
ATOM     27  C   UNL     1      38.924  -1.584  15.494  0.00  0.00    -0.000 A 
ATOM     28  C   UNL     1      38.731  -2.686  14.657  0.00  0.00    +0.036 A 
ATOM     29  C   UNL     1      37.442  -3.059  14.273  0.00  0.00    +0.134 A 
ATOM     30  C   UNL     1      36.342  -2.325  14.733  0.00  0.00    +0.036 A 
ATOM     31  C   UNL     1      36.531  -1.224  15.573  0.00  0.00    -0.000 A 
BRANCH  29  32
ATOM     32  O   UNL     1      37.263  -4.160  13.438  0.00  0.00    -0.506 OA
ATOM     33  H   UNL     1      36.340  -4.456  13.143  0.00  0.00    +0.292 HD
ENDBRANCH  29  32
ENDBRANCH   1  26
BRANCH   7  34
ATOM     34  O   UNL     1      35.526   5.054  13.383  0.00  0.00    -0.505 OA
ATOM     35  H   UNL     1      34.643   5.465  13.104  0.00  0.00    +0.292 HD
ENDBRANCH   7  34
TORSDOF 8
ENDMDL
MODEL        8
REMARK  Name = CMP_0
REMARK  8 active torsions:
REMARK  status: ('A' for Active; 'I' for Inactive)
REMARK    1  A    between atoms: C_1  and  C_17
REMARK    2  A    between atoms: C_5  and  O_6
REMARK    3  A    between atoms: C_11  and  C_21
REMARK    4  A    between atoms: O_13  and  C_14
REMARK    5  A    between atoms: C_24  and  O_27
REMARK    6  A    between atoms: O_27  and  C_28
REMARK    7  A    between atoms: C_28  and  C_29
REMARK    8  A    between atoms: C_29  and  N_30
REMARK                            x       y       z     vdW  Elec       q    Type
REMARK                         _______ _______ _______ _____ _____    ______ ____
ROOT
ATOM      1  C   UNL     1      37.468   0.897  17.318  0.00  0.00    +0.118 C 
ATOM      2  C   UNL     1      35.979   1.013  17.692  0.00  0.00    +0.202 C 
ATOM      3  O   UNL     1      35.218   1.592  16.638  0.00  0.00    -0.473 OA
ATOM      4  C   UNL     1      35.584   2.759  15.963  0.00  0.00    +0.145 A 
ATOM      5  C   UNL     1      36.888   3.294  16.040  0.00  0.00    +0.063 A 
ATOM      6  C   UNL     1      37.214   4.424  15.278  0.00  0.00    +0.046 A 
ATOM      7  C   UNL     1      36.256   5.035  14.463  0.00  0.00    +0.134 A 
ATOM      8  C   UNL     1      34.961   4.508  14.399  0.00  0.00    +0.040 A 
ATOM      9  C   UNL     1      34.631   3.373  15.142  0.00  0.00    +0.041 A 
ATOM     10  S   UNL     1      38.195   2.555  17.043  0.00  0.00    -0.103 S 
ENDROOT
BRANCH   2  11
ATOM     11  C   UNL     1      35.397  -0.328  18.084  0.00  0.00    +0.019 A 
ATOM     12  C   UNL     1      34.377  -0.900  17.307  0.00  0.00    +0.002 A 
ATOM     13  C   UNL     1      33.789  -2.111  17.687  0.00  0.00    +0.037 A 
ATOM     14  C   UNL     1      34.207  -2.764  18.861  0.00  0.00    +0.139 A 
ATOM     15  C   UNL     1      35.214  -2.187  19.642  0.00  0.00    +0.037 A 
ATOM     16  C   UNL     1      35.803  -0.978  19.263  0.00  0.00    +0.002 A 
BRANCH  14  17
ATOM     17  O   UNL     1      33.648  -3.978  19.287  0.00  0.00    -0.474 OA
BRANCH  17  18
ATOM     18  C   UNL     1      33.097  -4.962  18.414  0.00  0.00    +0.223 C 
BRANCH  18  19
ATOM     19  C   UNL     1      34.205  -5.890  17.916  0.00  0.00    +0.120 C 
BRANCH  19  20
ATOM     20  N   UNL     1      34.395  -5.756  16.458  0.00  0.00    -0.267 NA
ATOM     21  C   UNL     1      35.441  -4.789  16.105  0.00  0.00    +0.108 C 
ATOM     22  C   UNL     1      35.087  -4.239  14.729  0.00  0.00    +0.178 C 
ATOM     23  F   UNL     1      35.279  -2.868  14.686  0.00  0.00    -0.236 F 
ATOM     24  C   UNL     1      33.621  -4.587  14.517  0.00  0.00    +0.054 C 
ATOM     25  C   UNL     1      33.180  -5.263  15.805  0.00  0.00    +0.075 C 
ENDBRANCH  19  20
ENDBRANCH  18  19
ENDBRANCH  17  18
ENDBRANCH  14  17
ENDBRANCH   2  11
BRANCH   1  26
ATOM     26  C   UNL     1      37.758  -0.093  16.196  0.00  0.00    -0.008 A 
ATOM     27  C   UNL     1      38.290  -1.355  16.524  0.00  0.00    -0.000 A 
ATOM     28  C   UNL     1      38.522  -2.313  15.533  0.00  0.00    +0.036 A 
ATOM     29  C   UNL     1      38.223  -2.029  14.199  0.00  0.00    +0.134 A 
ATOM     30  C   UNL     1      37.690  -0.781  13.859  0.00  0.00    +0.036 A 
ATOM     31  C   UNL     1      37.455   0.179  14.848  0.00  0.00    -0.000 A 
BRANCH  29  32
ATOM     32  O   UNL     1      38.458  -2.993  13.221  0.00  0.00    -0.506 OA
ATOM     33  H   UNL     1      38.251  -2.818  12.245  0.00  0.00    +0.292 HD
ENDBRANCH  29  32
ENDBRANCH   1  26
BRANCH   7  34
ATOM     34  O   UNL     1      36.602   6.162  13.721  0.00  0.00    -0.505 OA
ATOM     35  H   UNL     1      35.931   6.628  13.121  0.00  0.00    +0.292 HD
ENDBRANCH   7  34
TORSDOF 8
ENDMDL
MODEL        9
REMARK  Name = CMP_0
REMARK  8 active torsions:
REMARK  status: ('A' for Active; 'I' for Inactive)
REMARK    1  A    between atoms: C_1  and  C_17
REMARK    2  A    between atoms: C_5  and  O_6
REMARK    3  A    between atoms: C_11  and  C_21
REMARK    4  A    between atoms: O_13  and  C_14
REMARK    5  A    between atoms: C_24  and  O_27
REMARK    6  A    between atoms: O_27  and  C_28
REMARK    7  A    between atoms: C_28  and  C_29
REMARK    8  A    between atoms: C_29  and  N_30
REMARK                            x       y       z     vdW  Elec       q    Type
REMARK                         _______ _______ _______ _____ _____    ______ ____
ROOT
ATOM      1  C   UNL     1      37.104  -0.792  14.638  0.00  0.00    +0.118 C 
ATOM      2  C   UNL     1      37.318  -2.317  14.671  0.00  0.00    +0.202 C 
ATOM      3  O   UNL     1      38.669  -2.650  14.969  0.00  0.00    -0.473 OA
ATOM      4  C   UNL     1      39.772  -2.075  14.334  0.00  0.00    +0.145 A 
ATOM      5  C   UNL     1      39.667  -0.892  13.570  0.00  0.00    +0.063 A 
ATOM      6  C   UNL     1      40.824  -0.323  13.022  0.00  0.00    +0.046 A 
ATOM      7  C   UNL     1      42.071  -0.926  13.205  0.00  0.00    +0.134 A 
ATOM      8  C   UNL     1      42.169  -2.105  13.952  0.00  0.00    +0.040 A 
ATOM      9  C   UNL     1      41.025  -2.672  14.517  0.00  0.00    +0.041 A 
ATOM     10  S   UNL     1      38.102  -0.030  13.305  0.00  0.00    -0.103 S 
ENDROOT
BRANCH   2  11
ATOM     11  C   UNL     1      36.383  -2.990  15.652  0.00  0.00    +0.019 A 
ATOM     12  C   UNL     1      36.894  -3.897  16.594  0.00  0.00    +0.002 A 
ATOM     13  C   UNL     1      36.036  -4.569  17.470  0.00  0.00    +0.037 A 
ATOM     14  C   UNL     1      34.647  -4.352  17.409  0.00  0.00    +0.139 A 
ATOM     15  C   UNL     1      34.137  -3.458  16.462  0.00  0.00    +0.037 A 
ATOM     16  C   UNL     1      34.993  -2.784  15.587  0.00  0.00    +0.002 A 
BRANCH  14  17
ATOM     17  O   UNL     1      33.745  -5.003  18.263  0.00  0.00    -0.474 OA
BRANCH  17  18
ATOM     18  C   UNL     1      33.846  -5.014  19.685  0.00  0.00    +0.223 C 
BRANCH  18  19
ATOM     19  C   UNL     1      33.485  -3.636  20.240  0.00  0.00    +0.120 C 
BRANCH  19  20
ATOM     20  N   UNL     1      34.674  -2.957  20.792  0.00  0.00    -0.267 NA
ATOM     21  C   UNL     1      35.277  -2.006  19.850  0.00  0.00    +0.108 C 
ATOM     22  C   UNL     1      36.758  -1.919  20.198  0.00  0.00    +0.178 C 
ATOM     23  F   UNL     1      37.532  -1.926  19.050  0.00  0.00    -0.236 F 
ATOM     24  C   UNL     1      37.047  -3.143  21.054  0.00  0.00    +0.054 C 
ATOM     25  C   UNL     1      35.738  -3.914  21.105  0.00  0.00    +0.075 C 
ENDBRANCH  19  20
ENDBRANCH  18  19
ENDBRANCH  17  18
ENDBRANCH  14  17
ENDBRANCH   2  11
BRANCH   1  26
ATOM     26  C   UNL     1      37.262  -0.107  15.989  0.00  0.00    -0.008 A 
ATOM     27  C   UNL     1      38.559   0.128  16.485  0.00  0.00    -0.000 A 
ATOM     28  C   UNL     1      38.751   0.801  17.694  0.00  0.00    +0.036 A 
ATOM     29  C   UNL     1      37.654   1.253  18.429  0.00  0.00    +0.134 A 
ATOM     30  C   UNL     1      36.358   1.031  17.947  0.00  0.00    +0.036 A 
ATOM     31  C   UNL     1      36.162   0.360  16.736  0.00  0.00    -0.000 A 
BRANCH  29  32
ATOM     32  O   UNL     1      37.859   1.923  19.633  0.00  0.00    -0.506 OA
ATOM     33  H   UNL     1      37.083   2.264  20.188  0.00  0.00    +0.292 HD
ENDBRANCH  29  32
ENDBRANCH   1  26
BRANCH   7  34
ATOM     34  O   UNL     1      43.206  -0.345  12.643  0.00  0.00    -0.505 OA
ATOM     35  H   UNL     1      44.124  -0.758  12.758  0.00  0.00    +0.292 HD
ENDBRANCH   7  34
TORSDOF 8
ENDMDL
MODEL       10
REMARK  Name = CMP_0
REMARK  8 active torsions:
REMARK  status: ('A' for Active; 'I' for Inactive)
REMARK    1  A    between atoms: C_1  and  C_17
REMARK    2  A    between atoms: C_5  and  O_6
REMARK    3  A    between atoms: C_11  and  C_21
REMARK    4  A    between atoms: O_13  and  C_14
REMARK    5  A    between atoms: C_24  and  O_27
REMARK    6  A    between atoms: O_27  and  C_28
REMARK    7  A    between atoms: C_28  and  C_29
REMARK    8  A    between atoms: C_29  and  N_30
REMARK                            x       y       z     vdW  Elec       q    Type
REMARK                         _______ _______ _______ _____ _____    ______ ____
ROOT
ATOM      1  C   UNL     1      35.426  -1.590  16.654  0.00  0.00    +0.118 C 
ATOM      2  C   UNL     1      35.223  -0.759  17.934  0.00  0.00    +0.202 C 
ATOM      3  O   UNL     1      35.489  -1.524  19.104  0.00  0.00    -0.473 OA
ATOM      4  C   UNL     1      34.971  -2.801  19.334  0.00  0.00    +0.145 A 
ATOM      5  C   UNL     1      34.401  -3.578  18.302  0.00  0.00    +0.063 A 
ATOM      6  C   UNL     1      33.968  -4.881  18.581  0.00  0.00    +0.046 A 
ATOM      7  C   UNL     1      34.076  -5.407  19.872  0.00  0.00    +0.134 A 
ATOM      8  C   UNL     1      34.631  -4.630  20.894  0.00  0.00    +0.040 A 
ATOM      9  C   UNL     1      35.080  -3.336  20.623  0.00  0.00    +0.041 A 
ATOM     10  S   UNL     1      34.247  -2.991  16.601  0.00  0.00    -0.103 S 
ENDROOT
BRANCH   2  11
ATOM     11  C   UNL     1      36.071   0.495  17.924  0.00  0.00    +0.019 A 
ATOM     12  C   UNL     1      35.858   1.475  16.942  0.00  0.00    +0.002 A 
ATOM     13  C   UNL     1      36.669   2.611  16.884  0.00  0.00    +0.037 A 
ATOM     14  C   UNL     1      37.720   2.781  17.806  0.00  0.00    +0.139 A 
ATOM     15  C   UNL     1      37.941   1.798  18.777  0.00  0.00    +0.037 A 
ATOM     16  C   UNL     1      37.129   0.662  18.836  0.00  0.00    +0.002 A 
BRANCH  14  17
ATOM     17  O   UNL     1      38.563   3.901  17.789  0.00  0.00    -0.474 OA
BRANCH  17  18
ATOM     18  C   UNL     1      38.179   5.192  17.320  0.00  0.00    +0.223 C 
BRANCH  18  19
ATOM     19  C   UNL     1      39.416   5.962  16.858  0.00  0.00    +0.120 C 
BRANCH  19  20
ATOM     20  N   UNL     1      39.946   6.815  17.940  0.00  0.00    -0.267 NA
ATOM     21  C   UNL     1      41.222   6.329  18.477  0.00  0.00    +0.108 C 
ATOM     22  C   UNL     1      41.302   6.805  19.922  0.00  0.00    +0.178 C 
ATOM     23  F   UNL     1      41.781   5.797  20.744  0.00  0.00    -0.236 F 
ATOM     24  C   UNL     1      39.880   7.184  20.305  0.00  0.00    +0.054 C 
ATOM     25  C   UNL     1      39.035   6.849  19.087  0.00  0.00    +0.075 C 
ENDBRANCH  19  20
ENDBRANCH  18  19
ENDBRANCH  17  18
ENDBRANCH  14  17
ENDBRANCH   2  11
BRANCH   1  26
ATOM     26  C   UNL     1      36.871  -1.996  16.392  0.00  0.00    -0.008 A 
ATOM     27  C   UNL     1      37.386  -3.134  17.043  0.00  0.00    -0.000 A 
ATOM     28  C   UNL     1      38.689  -3.573  16.792  0.00  0.00    +0.036 A 
ATOM     29  C   UNL     1      39.498  -2.888  15.883  0.00  0.00    +0.134 A 
ATOM     30  C   UNL     1      38.998  -1.758  15.225  0.00  0.00    +0.036 A 
ATOM     31  C   UNL     1      37.695  -1.317  15.472  0.00  0.00    -0.000 A 
BRANCH  29  32
ATOM     32  O   UNL     1      40.794  -3.337  15.641  0.00  0.00    -0.506 OA
ATOM     33  H   UNL     1      41.406  -2.861  14.988  0.00  0.00    +0.292 HD
ENDBRANCH  29  32
ENDBRANCH   1  26
BRANCH   7  34
ATOM     34  O   UNL     1      33.632  -6.703  20.126  0.00  0.00    -0.505 OA
ATOM     35  H   UNL     1      33.697  -7.113  21.050  0.00  0.00    +0.292 HD
ENDBRANCH   7  34
TORSDOF 8
ENDMDL
MODEL        2
REMARK  Name = CMP_0
REMARK  8 active torsions:
REMARK  status: ('A' for Active; 'I' for Inactive)
REMARK    1  A    between atoms: C_1  and  C_17
REMARK    2  A    between atoms: C_5  and  O_6
REMARK    3  A    between atoms: C_11  and  C_21
REMARK    4  A    between atoms: O_13  and  C_14
REMARK    5  A    between atoms: C_24  and  O_27
REMARK    6  A    between atoms: O_27  and  C_28
REMARK    7  A    between atoms: C_28  and  C_29
REMARK    8  A    between atoms: C_29  and  N_30
REMARK                            x       y       z     vdW  Elec       q    Type
REMARK                         _______ _______ _______ _____ _____    ______ ____
ROOT
ATOM      1  C   UNL     1      35.989  -3.246  17.909  0.00  0.00    +0.118 C 
ATOM      2  C   UNL     1      35.918  -2.183  19.021  0.00  0.00    +0.202 C 
ATOM      3  O   UNL     1      35.228  -1.015  18.587  0.00  0.00    -0.473 OA
ATOM      4  C   UNL     1      35.475  -0.367  17.374  0.00  0.00    +0.145 A 
ATOM      5  C   UNL     1      36.214  -0.972  16.334  0.00  0.00    +0.063 A 
ATOM      6  C   UNL     1      36.355  -0.305  15.111  0.00  0.00    +0.046 A 
ATOM      7  C   UNL     1      35.792   0.963  14.922  0.00  0.00    +0.134 A 
ATOM      8  C   UNL     1      35.075   1.564  15.958  0.00  0.00    +0.040 A 
ATOM      9  C   UNL     1      34.914   0.899  17.176  0.00  0.00    +0.041 A 
ATOM     10  S   UNL     1      36.943  -2.618  16.478  0.00  0.00    -0.103 S 
ENDROOT
BRANCH   2  11
ATOM     11  C   UNL     1      35.276  -2.736  20.275  0.00  0.00    +0.019 A 
ATOM     12  C   UNL     1      36.019  -3.498  21.195  0.00  0.00    +0.002 A 
ATOM     13  C   UNL     1      35.436  -3.932  22.388  0.00  0.00    +0.037 A 
ATOM     14  C   UNL     1      34.110  -3.607  22.691  0.00  0.00    +0.139 A 
ATOM     15  C   UNL     1      33.364  -2.843  21.775  0.00  0.00    +0.037 A 
ATOM     16  C   UNL     1      33.946  -2.408  20.581  0.00  0.00    +0.002 A 
BRANCH  14  17
ATOM     17  O   UNL     1      33.576  -4.056  23.908  0.00  0.00    -0.474 OA
BRANCH  17  18
ATOM     18  C   UNL     1      32.529  -3.397  24.619  0.00  0.00    +0.223 C 
BRANCH  18  19
ATOM     19  C   UNL     1      32.953  -3.163  26.069  0.00  0.00    +0.120 C 
BRANCH  19  20
ATOM     20  N   UNL     1      33.344  -1.756  26.291  0.00  0.00    -0.267 NA
ATOM     21  C   UNL     1      32.645  -0.825  25.399  0.00  0.00    +0.108 C 
ATOM     22  C   UNL     1      32.629   0.514  26.108  0.00  0.00    +0.178 C 
ATOM     23  F   UNL     1      33.764   1.237  25.774  0.00  0.00    -0.236 F 
ATOM     24  C   UNL     1      32.651   0.165  27.587  0.00  0.00    +0.054 C 
ATOM     25  C   UNL     1      33.020  -1.315  27.655  0.00  0.00    +0.075 C 
ENDBRANCH  19  20
ENDBRANCH  18  19
ENDBRANCH  17  18
ENDBRANCH  14  17
ENDBRANCH   2  11
BRANCH   1  26
ATOM     26  C   UNL     1      34.641  -3.851  17.535  0.00  0.00    -0.008 A 
ATOM     27  C   UNL     1      33.609  -3.099  16.938  0.00  0.00    -0.000 A 
ATOM     28  C   UNL     1      32.365  -3.680  16.677  0.00  0.00    +0.036 A 
ATOM     29  C   UNL     1      32.125  -5.014  17.012  0.00  0.00    +0.134 A 
ATOM     30  C   UNL     1      33.139  -5.772  17.607  0.00  0.00    +0.036 A 
ATOM     31  C   UNL     1      34.385  -5.196  17.867  0.00  0.00    -0.000 A 
BRANCH  29  32
ATOM     32  O   UNL     1      30.877  -5.576  16.752  0.00  0.00    -0.506 OA
ATOM     33  H   UNL     1      30.670  -6.538  16.990  0.00  0.00    +0.292 HD
ENDBRANCH  29  32
ENDBRANCH   1  26
BRANCH   7  34
ATOM     34  O   UNL     1      35.936   1.631  13.708  0.00  0.00    -0.505 OA
ATOM     35  H   UNL     1      36.452   1.222  12.937  0.00  0.00    +0.292 HD
ENDBRANCH   7  34
TORSDOF 8
ENDMDL
MODEL        3
REMARK  Name = CMP_0
REMARK  8 active torsions:
REMARK  status: ('A' for Active; 'I' for Inactive)
REMARK    1  A    between atoms: C_1  and  C_17
REMARK    2  A    between atoms: C_5  and  O_6
REMARK    3  A    between atoms: C_11  and  C_21
REMARK    4  A    between atoms: O_13  and  C_14
REMARK    5  A    between atoms: C_24  and  O_27
REMARK    6  A    between atoms: O_27  and  C_28
REMARK    7  A    between atoms: C_28  and  C_29
REMARK    8  A    between atoms: C_29  and  N_30
REMARK                            x       y       z     vdW  Elec       q    Type
REMARK                         _______ _______ _______ _____ _____    ______ ____
ROOT
ATOM      1  C   UNL     1      37.763  -0.966  17.150  0.00  0.00    +0.118 C 
ATOM      2  C   UNL     1      36.881  -0.286  18.214  0.00  0.00    +0.202 C 
ATOM      3  O   UNL     1      35.795   0.420  17.622  0.00  0.00    -0.473 OA
ATOM      4  C   UNL     1      35.927   1.292  16.539  0.00  0.00    +0.145 A 
ATOM      5  C   UNL     1      37.090   1.327  15.739  0.00  0.00    +0.063 A 
ATOM      6  C   UNL     1      37.128   2.163  14.616  0.00  0.00    +0.046 A 
ATOM      7  C   UNL     1      36.035   2.977  14.296  0.00  0.00    +0.134 A 
ATOM      8  C   UNL     1      34.893   2.950  15.100  0.00  0.00    +0.040 A 
ATOM      9  C   UNL     1      34.839   2.107  16.212  0.00  0.00    +0.041 A 
ATOM     10  S   UNL     1      38.530   0.286  16.055  0.00  0.00    -0.103 S 
ENDROOT
BRANCH   2  11
ATOM     11  C   UNL     1      36.368  -1.286  19.228  0.00  0.00    +0.019 A 
ATOM     12  C   UNL     1      34.989  -1.502  19.402  0.00  0.00    +0.002 A 
ATOM     13  C   UNL     1      34.533  -2.486  20.282  0.00  0.00    +0.037 A 
ATOM     14  C   UNL     1      35.438  -3.278  20.995  0.00  0.00    +0.139 A 
ATOM     15  C   UNL     1      36.819  -3.068  20.822  0.00  0.00    +0.037 A 
ATOM     16  C   UNL     1      37.277  -2.083  19.942  0.00  0.00    +0.002 A 
BRANCH  14  17
ATOM     17  O   UNL     1      34.929  -4.262  21.855  0.00  0.00    -0.474 OA
BRANCH  17  18
ATOM     18  C   UNL     1      33.628  -4.225  22.440  0.00  0.00    +0.223 C 
BRANCH  18  19
ATOM     19  C   UNL     1      33.704  -3.607  23.836  0.00  0.00    +0.120 C 
BRANCH  19  20
ATOM     20  N   UNL     1      32.367  -3.198  24.314  0.00  0.00    -0.267 NA
ATOM     21  C   UNL     1      32.328  -2.968  25.762  0.00  0.00    +0.108 C 
ATOM     22  C   UNL     1      31.189  -1.998  26.008  0.00  0.00    +0.178 C 
ATOM     23  F   UNL     1      30.011  -2.699  26.210  0.00  0.00    -0.236 F 
ATOM     24  C   UNL     1      31.097  -1.183  24.730  0.00  0.00    +0.054 C 
ATOM     25  C   UNL     1      31.938  -1.934  23.701  0.00  0.00    +0.075 C 
ENDBRANCH  19  20
ENDBRANCH  18  19
ENDBRANCH  17  18
ENDBRANCH  14  17
ENDBRANCH   2  11
BRANCH   1  26
ATOM     26  C   UNL     1      37.077  -2.103  16.402  0.00  0.00    -0.008 A 
ATOM     27  C   UNL     1      35.859  -1.933  15.713  0.00  0.00    -0.000 A 
ATOM     28  C   UNL     1      35.231  -3.022  15.100  0.00  0.00    +0.036 A 
ATOM     29  C   UNL     1      35.800  -4.295  15.170  0.00  0.00    +0.134 A 
ATOM     30  C   UNL     1      37.007  -4.479  15.853  0.00  0.00    +0.036 A 
ATOM     31  C   UNL     1      37.639  -3.393  16.465  0.00  0.00    -0.000 A 
BRANCH  29  32
ATOM     32  O   UNL     1      35.157  -5.371  14.561  0.00  0.00    -0.506 OA
ATOM     33  H   UNL     1      35.541  -6.308  14.600  0.00  0.00    +0.292 HD
ENDBRANCH  29  32
ENDBRANCH   1  26
BRANCH   7  34
ATOM     34  O   UNL     1      36.073   3.814  13.183  0.00  0.00    -0.505 OA
ATOM     35  H   UNL     1      36.888   3.858  12.582  0.00  0.00    +0.292 HD
ENDBRANCH   7  34
TORSDOF 8
ENDMDL
MODEL        4
REMARK  Name = CMP_0
REMARK  8 active torsions:
REMARK  status: ('A' for Active; 'I' for Inactive)
REMARK    1  A    between atoms: C_1  and  C_17
REMARK    2  A    between atoms: C_5  and  O_6
REMARK    3  A    between atoms: C_11  and  C_21
REMARK    4  A    between atoms: O_13  and  C_14
REMARK    5  A    between atoms: C_24  and  O_27
REMARK    6  A    between atoms: O_27  and  C_28
REMARK    7  A    between atoms: C_28  and  C_29
REMARK    8  A    between atoms: C_29  and  N_30
REMARK                            x       y       z     vdW  Elec       q    Type
REMARK                         _______ _______ _______ _____ _____    ______ ____
ROOT
ATOM      1  C   UNL     1      36.937  -2.477  17.639  0.00  0.00    +0.118 C 
ATOM      2  C   UNL     1      36.451  -1.458  18.687  0.00  0.00    +0.202 C 
ATOM      3  O   UNL     1      35.556  -0.507  18.119  0.00  0.00    -0.473 OA
ATOM      4  C   UNL     1      35.794   0.172  16.922  0.00  0.00    +0.145 A 
ATOM      5  C   UNL     1      36.794  -0.234  16.012  0.00  0.00    +0.063 A 
ATOM      6  C   UNL     1      36.927   0.437  14.790  0.00  0.00    +0.046 A 
ATOM      7  C   UNL     1      36.094   1.518  14.476  0.00  0.00    +0.134 A 
ATOM      8  C   UNL     1      35.116   1.926  15.386  0.00  0.00    +0.040 A 
ATOM      9  C   UNL     1      34.964   1.252  16.600  0.00  0.00    +0.041 A 
ATOM     10  S   UNL     1      37.886  -1.638  16.317  0.00  0.00    -0.103 S 
ENDROOT
BRANCH   2  11
ATOM     11  C   UNL     1      35.806  -2.146  19.871  0.00  0.00    +0.019 A 
ATOM     12  C   UNL     1      34.420  -2.063  20.092  0.00  0.00    +0.002 A 
ATOM     13  C   UNL     1      33.827  -2.771  21.140  0.00  0.00    +0.037 A 
ATOM     14  C   UNL     1      34.600  -3.580  21.979  0.00  0.00    +0.139 A 
ATOM     15  C   UNL     1      35.987  -3.669  21.759  0.00  0.00    +0.037 A 
ATOM     16  C   UNL     1      36.581  -2.962  20.710  0.00  0.00    +0.002 A 
BRANCH  14  17
ATOM     17  O   UNL     1      33.955  -4.281  23.008  0.00  0.00    -0.474 OA
BRANCH  17  18
ATOM     18  C   UNL     1      32.753  -3.851  23.645  0.00  0.00    +0.223 C 
BRANCH  18  19
ATOM     19  C   UNL     1      33.089  -2.947  24.832  0.00  0.00    +0.120 C 
BRANCH  19  20
ATOM     20  N   UNL     1      31.882  -2.630  25.622  0.00  0.00    -0.267 NA
ATOM     21  C   UNL     1      32.198  -2.093  26.950  0.00  0.00    +0.108 C 
ATOM     22  C   UNL     1      31.004  -1.258  27.367  0.00  0.00    +0.178 C 
ATOM     23  F   UNL     1      30.087  -2.051  28.039  0.00  0.00    -0.236 F 
ATOM     24  C   UNL     1      30.407  -0.765  26.060  0.00  0.00    +0.054 C 
ATOM     25  C   UNL     1      31.062  -1.602  24.965  0.00  0.00    +0.075 C 
ENDBRANCH  19  20
ENDBRANCH  18  19
ENDBRANCH  17  18
ENDBRANCH  14  17
ENDBRANCH   2  11
BRANCH   1  26
ATOM     26  C   UNL     1      35.847  -3.408  17.121  0.00  0.00    -0.008 A 
ATOM     27  C   UNL     1      34.766  -2.953  16.340  0.00  0.00    -0.000 A 
ATOM     28  C   UNL     1      33.753  -3.832  15.946  0.00  0.00    +0.036 A 
ATOM     29  C   UNL     1      33.795  -5.175  16.329  0.00  0.00    +0.134 A 
ATOM     30  C   UNL     1      34.861  -5.640  17.107  0.00  0.00    +0.036 A 
ATOM     31  C   UNL     1      35.877  -4.765  17.500  0.00  0.00    -0.000 A 
BRANCH  29  32
ATOM     32  O   UNL     1      32.773  -6.036  15.934  0.00  0.00    -0.506 OA
ATOM     33  H   UNL     1      32.772  -7.012  16.203  0.00  0.00    +0.292 HD
ENDBRANCH  29  32
ENDBRANCH   1  26
BRANCH   7  34
ATOM     34  O   UNL     1      36.228   2.191  13.264  0.00  0.00    -0.505 OA
ATOM     35  H   UNL     1      36.929   1.921  12.584  0.00  0.00    +0.292 HD
ENDBRANCH   7  34
TORSDOF 8
ENDMDL
MODEL        5
REMARK  Name = CMP_0
REMARK  8 active torsions:
REMARK  status: ('A' for Active; 'I' for Inactive)
REMARK    1  A    between atoms: C_1  and  C_17
REMARK    2  A    between atoms: C_5  and  O_6
REMARK    3  A    between atoms: C_11  and  C_21
REMARK    4  A    between atoms: O_13  and  C_14
REMARK    5  A    between atoms: C_24  and  O_27
REMARK    6  A    between atoms: O_27  and  C_28
REMARK    7  A    between atoms: C_28  and  C_29
REMARK    8  A    between atoms: C_29  and  N_30
REMARK                            x       y       z     vdW  Elec       q    Type
REMARK                         _______ _______ _______ _____ _____    ______ ____
ROOT
ATOM      1  C   UNL     1      36.628  -3.012  17.547  0.00  0.00    +0.118 C 
ATOM      2  C   UNL     1      35.845  -2.963  16.221  0.00  0.00    +0.202 C 
ATOM      3  O   UNL     1      34.537  -2.430  16.404  0.00  0.00    -0.473 OA
ATOM      4  C   UNL     1      33.663  -2.834  17.416  0.00  0.00    +0.145 A 
ATOM      5  C   UNL     1      34.097  -3.587  18.529  0.00  0.00    +0.063 A 
ATOM      6  C   UNL     1      33.190  -3.889  19.553  0.00  0.00    +0.046 A 
ATOM      7  C   UNL     1      31.856  -3.472  19.468  0.00  0.00    +0.134 A 
ATOM      8  C   UNL     1      31.428  -2.741  18.357  0.00  0.00    +0.040 A 
ATOM      9  C   UNL     1      32.328  -2.421  17.340  0.00  0.00    +0.041 A 
ATOM     10  S   UNL     1      35.805  -4.132  18.739  0.00  0.00    -0.103 S 
ENDROOT
BRANCH   2  11
ATOM     11  C   UNL     1      36.591  -2.174  15.167  0.00  0.00    +0.019 A 
ATOM     12  C   UNL     1      36.176  -0.881  14.798  0.00  0.00    +0.002 A 
ATOM     13  C   UNL     1      36.922  -0.133  13.884  0.00  0.00    +0.037 A 
ATOM     14  C   UNL     1      38.098  -0.651  13.331  0.00  0.00    +0.139 A 
ATOM     15  C   UNL     1      38.519  -1.942  13.700  0.00  0.00    +0.037 A 
ATOM     16  C   UNL     1      37.773  -2.692  14.614  0.00  0.00    +0.002 A 
BRANCH  14  17
ATOM     17  O   UNL     1      38.818   0.146  12.429  0.00  0.00    -0.474 OA
BRANCH  17  18
ATOM     18  C   UNL     1      38.648   1.555  12.287  0.00  0.00    +0.223 C 
BRANCH  18  19
ATOM     19  C   UNL     1      39.604   2.291  13.226  0.00  0.00    +0.120 C 
BRANCH  19  20
ATOM     20  N   UNL     1      38.871   3.184  14.146  0.00  0.00    -0.267 NA
ATOM     21  C   UNL     1      37.522   3.507  13.667  0.00  0.00    +0.108 C 
ATOM     22  C   UNL     1      36.705   3.849  14.896  0.00  0.00    +0.178 C 
ATOM     23  F   UNL     1      36.803   5.205  15.165  0.00  0.00    -0.236 F 
ATOM     24  C   UNL     1      37.346   3.049  16.017  0.00  0.00    +0.054 C 
ATOM     25  C   UNL     1      38.684   2.565  15.465  0.00  0.00    +0.075 C 
ENDBRANCH  19  20
ENDBRANCH  18  19
ENDBRANCH  17  18
ENDBRANCH  14  17
ENDBRANCH   2  11
BRANCH   1  26
ATOM     26  C   UNL     1      36.971  -1.643  18.122  0.00  0.00    -0.008 A 
ATOM     27  C   UNL     1      36.010  -0.812  18.731  0.00  0.00    -0.000 A 
ATOM     28  C   UNL     1      36.358   0.466  19.182  0.00  0.00    +0.036 A 
ATOM     29  C   UNL     1      37.662   0.939  19.026  0.00  0.00    +0.134 A 
ATOM     30  C   UNL     1      38.626   0.125  18.419  0.00  0.00    +0.036 A 
ATOM     31  C   UNL     1      38.283  -1.153  17.971  0.00  0.00    -0.000 A 
BRANCH  29  32
ATOM     32  O   UNL     1      37.990   2.217  19.473  0.00  0.00    -0.506 OA
ATOM     33  H   UNL     1      38.925   2.591  19.367  0.00  0.00    +0.292 HD
ENDBRANCH  29  32
ENDBRANCH   1  26
BRANCH   7  34
ATOM     34  O   UNL     1      30.951  -3.776  20.481  0.00  0.00    -0.505 OA
ATOM     35  H   UNL     1      31.229  -4.307  21.299  0.00  0.00    +0.292 HD
ENDBRANCH   7  34
TORSDOF 8
ENDMDL
MODEL        6
REMARK  Name = CMP_0
REMARK  8 active torsions:
REMARK  status: ('A' for Active; 'I' for Inactive)
REMARK    1  A    between atoms: C_1  and  C_17
REMARK    2  A    between atoms: C_5  and  O_6
REMARK    3  A    between atoms: C_11  and  C_21
REMARK    4  A    between atoms: O_13  and  C_14
REMARK    5  A    between atoms: C_24  and  O_27
REMARK    6  A    between atoms: O_27  and  C_28
REMARK    7  A    between atoms: C_28  and  C_29
REMARK    8  A    between atoms: C_29  and  N_30
REMARK                            x       y       z     vdW  Elec       q    Type
REMARK                         _______ _______ _______ _____ _____    ______ ____
ROOT
ATOM      1  C   UNL     1      33.383  -2.854  18.404  0.00  0.00    +0.118 C 
ATOM      2  C   UNL     1      32.982  -4.090  19.232  0.00  0.00    +0.202 C 
ATOM      3  O   UNL     1      33.647  -5.264  18.776  0.00  0.00    -0.473 OA
ATOM      4  C   UNL     1      33.732  -5.643  17.434  0.00  0.00    +0.145 A 
ATOM      5  C   UNL     1      33.433  -4.752  16.381  0.00  0.00    +0.063 A 
ATOM      6  C   UNL     1      33.620  -5.166  15.055  0.00  0.00    +0.046 A 
ATOM      7  C   UNL     1      34.077  -6.458  14.770  0.00  0.00    +0.134 A 
ATOM      8  C   UNL     1      34.357  -7.340  15.816  0.00  0.00    +0.040 A 
ATOM      9  C   UNL     1      34.190  -6.932  17.140  0.00  0.00    +0.041 A 
ATOM     10  S   UNL     1      32.875  -3.058  16.657  0.00  0.00    -0.103 S 
ENDROOT
BRANCH   2  11
ATOM     11  C   UNL     1      33.244  -3.876  20.707  0.00  0.00    +0.019 A 
ATOM     12  C   UNL     1      32.286  -3.261  21.533  0.00  0.00    +0.002 A 
ATOM     13  C   UNL     1      32.507  -3.146  22.908  0.00  0.00    +0.037 A 
ATOM     14  C   UNL     1      33.678  -3.648  23.485  0.00  0.00    +0.139 A 
ATOM     15  C   UNL     1      34.638  -4.267  22.663  0.00  0.00    +0.037 A 
ATOM     16  C   UNL     1      34.418  -4.384  21.287  0.00  0.00    +0.002 A 
BRANCH  14  17
ATOM     17  O   UNL     1      33.846  -3.519  24.872  0.00  0.00    -0.474 OA
BRANCH  17  18
ATOM     18  C   UNL     1      32.780  -3.300  25.794  0.00  0.00    +0.223 C 
BRANCH  18  19
ATOM     19  C   UNL     1      32.806  -1.852  26.284  0.00  0.00    +0.120 C 
BRANCH  19  20
ATOM     20  N   UNL     1      31.438  -1.336  26.500  0.00  0.00    -0.267 NA
ATOM     21  C   UNL     1      30.402  -2.262  26.030  0.00  0.00    +0.108 C 
ATOM     22  C   UNL     1      29.157  -1.952  26.837  0.00  0.00    +0.178 C 
ATOM     23  F   UNL     1      28.409  -0.979  26.193  0.00  0.00    -0.236 F 
ATOM     24  C   UNL     1      29.681  -1.416  28.159  0.00  0.00    +0.054 C 
ATOM     25  C   UNL     1      31.161  -1.124  27.927  0.00  0.00    +0.075 C 
ENDBRANCH  19  20
ENDBRANCH  18  19
ENDBRANCH  17  18
ENDBRANCH  14  17
ENDBRANCH   2  11
BRANCH   1  26
ATOM     26  C   UNL     1      34.836  -2.429  18.579  0.00  0.00    -0.008 A 
ATOM     27  C   UNL     1      35.209  -1.278  19.302  0.00  0.00    -0.000 A 
ATOM     28  C   UNL     1      36.550  -0.889  19.377  0.00  0.00    +0.036 A 
ATOM     29  C   UNL     1      37.538  -1.634  18.729  0.00  0.00    +0.134 A 
ATOM     30  C   UNL     1      37.182  -2.777  18.006  0.00  0.00    +0.036 A 
ATOM     31  C   UNL     1      35.843  -3.170  17.931  0.00  0.00    -0.000 A 
BRANCH  29  32
ATOM     32  O   UNL     1      38.869  -1.228  18.807  0.00  0.00    -0.506 OA
ATOM     33  H   UNL     1      39.607  -1.742  18.342  0.00  0.00    +0.292 HD
ENDBRANCH  29  32
ENDBRANCH   1  26
BRANCH   7  34
ATOM     34  O   UNL     1      34.258  -6.873  13.453  0.00  0.00    -0.505 OA
ATOM     35  H   UNL     1      34.061  -6.258  12.672  0.00  0.00    +0.292 HD
ENDBRANCH   7  34
TORSDOF 8
ENDMDL
MODEL        7
REMARK  Name = CMP_0
REMARK  8 active torsions:
REMARK  status: ('A' for Active; 'I' for Inactive)
REMARK    1  A    between atoms: C_1  and  C_17
REMARK    2  A    between atoms: C_5  and  O_6
REMARK    3  A    between atoms: C_11  and  C_21
REMARK    4  A    between atoms: O_13  and  C_14
REMARK    5  A    between atoms: C_24  and  O_27
REMARK    6  A    between atoms: O_27  and  C_28
REMARK    7  A    between atoms: C_28  and  C_29
REMARK    8  A    between atoms: C_29  and  N_30
REMARK                            x       y       z     vdW  Elec       q    Type
REMARK                         _______ _______ _______ _____ _____    ______ ____
ROOT
ATOM      1  C   UNL     1      36.635  -2.960  17.463  0.00  0.00    +0.118 C 
ATOM      2  C   UNL     1      35.814  -2.894  16.161  0.00  0.00    +0.202 C 
ATOM      3  O   UNL     1      34.508  -2.374  16.390  0.00  0.00    -0.473 OA
ATOM      4  C   UNL     1      33.666  -2.802  17.419  0.00  0.00    +0.145 A 
ATOM      5  C   UNL     1      34.137  -3.569  18.507  0.00  0.00    +0.063 A 
ATOM      6  C   UNL     1      33.261  -3.895  19.550  0.00  0.00    +0.046 A 
ATOM      7  C   UNL     1      31.922  -3.487  19.510  0.00  0.00    +0.134 A 
ATOM      8  C   UNL     1      31.458  -2.741  18.425  0.00  0.00    +0.040 A 
ATOM      9  C   UNL     1      32.327  -2.397  17.388  0.00  0.00    +0.041 A 
ATOM     10  S   UNL     1      35.854  -4.106  18.659  0.00  0.00    -0.103 S 
ENDROOT
BRANCH   2  11
ATOM     11  C   UNL     1      36.525  -2.082  15.100  0.00  0.00    +0.019 A 
ATOM     12  C   UNL     1      37.456  -2.679  14.231  0.00  0.00    +0.002 A 
ATOM     13  C   UNL     1      38.042  -1.936  13.203  0.00  0.00    +0.037 A 
ATOM     14  C   UNL     1      37.705  -0.592  13.016  0.00  0.00    +0.139 A 
ATOM     15  C   UNL     1      36.771   0.009  13.880  0.00  0.00    +0.037 A 
ATOM     16  C   UNL     1      36.184  -0.734  14.909  0.00  0.00    +0.002 A 
BRANCH  14  17
ATOM     17  O   UNL     1      38.311   0.106  11.961  0.00  0.00    -0.474 OA
BRANCH  17  18
ATOM     18  C   UNL     1      39.545  -0.269  11.352  0.00  0.00    +0.223 C 
BRANCH  18  19
ATOM     19  C   UNL     1      40.705   0.450  12.043  0.00  0.00    +0.120 C 
BRANCH  19  20
ATOM     20  N   UNL     1      41.631  -0.513  12.674  0.00  0.00    -0.267 NA
ATOM     21  C   UNL     1      41.370  -0.697  14.105  0.00  0.00    +0.108 C 
ATOM     22  C   UNL     1      41.896  -2.074  14.460  0.00  0.00    +0.178 C 
ATOM     23  F   UNL     1      43.227  -1.986  14.838  0.00  0.00    -0.236 F 
ATOM     24  C   UNL     1      41.773  -2.874  13.175  0.00  0.00    +0.054 C 
ATOM     25  C   UNL     1      41.511  -1.849  12.075  0.00  0.00    +0.075 C 
ENDBRANCH  19  20
ENDBRANCH  18  19
ENDBRANCH  17  18
ENDBRANCH  14  17
ENDBRANCH   2  11
BRANCH   1  26
ATOM     26  C   UNL     1      36.985  -1.598  18.051  0.00  0.00    -0.008 A 
ATOM     27  C   UNL     1      36.022  -0.753  18.638  0.00  0.00    -0.000 A 
ATOM     28  C   UNL     1      36.378   0.517  19.102  0.00  0.00    +0.036 A 
ATOM     29  C   UNL     1      37.693   0.969  18.982  0.00  0.00    +0.134 A 
ATOM     30  C   UNL     1      38.659   0.142  18.398  0.00  0.00    +0.036 A 
ATOM     31  C   UNL     1      38.308  -1.129  17.936  0.00  0.00    -0.000 A 
BRANCH  29  32
ATOM     32  O   UNL     1      38.030   2.240  19.441  0.00  0.00    -0.506 OA
ATOM     33  H   UNL     1      38.973   2.599  19.361  0.00  0.00    +0.292 HD
ENDBRANCH  29  32
ENDBRANCH   1  26
BRANCH   7  34
ATOM     34  O   UNL     1      31.048  -3.815  20.544  0.00  0.00    -0.505 OA
ATOM     35  H   UNL     1      31.354  -4.356  21.344  0.00  0.00    +0.292 HD
ENDBRANCH   7  34
TORSDOF 8
ENDMDL
MODEL        8
REMARK  Name = CMP_0
REMARK  8 active torsions:
REMARK  status: ('A' for Active; 'I' for Inactive)
REMARK    1  A    between atoms: C_1  and  C_17
REMARK    2  A    between atoms: C_5  and  O_6
REMARK    3  A    between atoms: C_11  and  C_21
REMARK    4  A    between atoms: O_13  and  C_14
REMARK    5  A    between atoms: C_24  and  O_27
REMARK    6  A    between atoms: O_27  and  C_28
REMARK    7  A    between atoms: C_28  and  C_29
REMARK    8  A    between atoms: C_29  and  N_30
REMARK                            x       y       z     vdW  Elec       q    Type
REMARK                         _______ _______ _______ _____ _____    ______ ____
ROOT
ATOM      1  C   UNL     1      35.473  -1.807  16.587  0.00  0.00    +0.118 C 
ATOM      2  C   UNL     1      35.207  -1.062  17.909  0.00  0.00    +0.202 C 
ATOM      3  O   UNL     1      35.450  -1.895  19.039  0.00  0.00    -0.473 OA
ATOM      4  C   UNL     1      34.968  -3.200  19.165  0.00  0.00    +0.145 A 
ATOM      5  C   UNL     1      34.453  -3.922  18.066  0.00  0.00    +0.063 A 
ATOM      6  C   UNL     1      34.065  -5.257  18.240  0.00  0.00    +0.046 A 
ATOM      7  C   UNL     1      34.161  -5.869  19.496  0.00  0.00    +0.134 A 
ATOM      8  C   UNL     1      34.657  -5.146  20.583  0.00  0.00    +0.040 A 
ATOM      9  C   UNL     1      35.063  -3.821  20.416  0.00  0.00    +0.041 A 
ATOM     10  S   UNL     1      34.328  -3.225  16.406  0.00  0.00    -0.103 S 
ENDROOT
BRANCH   2  11
ATOM     11  C   UNL     1      36.028   0.206  18.005  0.00  0.00    +0.019 A 
ATOM     12  C   UNL     1      37.089   0.316  18.922  0.00  0.00    +0.002 A 
ATOM     13  C   UNL     1      37.890   1.460  18.942  0.00  0.00    +0.037 A 
ATOM     14  C   UNL     1      37.658   2.508  18.044  0.00  0.00    +0.139 A 
ATOM     15  C   UNL     1      36.600   2.399  17.122  0.00  0.00    +0.037 A 
ATOM     16  C   UNL     1      35.797   1.255  17.101  0.00  0.00    +0.002 A 
BRANCH  14  17
ATOM     17  O   UNL     1      38.499   3.628  18.096  0.00  0.00    -0.474 OA
BRANCH  17  18
ATOM     18  C   UNL     1      38.471   4.701  17.156  0.00  0.00    +0.223 C 
BRANCH  18  19
ATOM     19  C   UNL     1      38.429   6.038  17.895  0.00  0.00    +0.120 C 
BRANCH  19  20
ATOM     20  N   UNL     1      39.407   6.069  19.002  0.00  0.00    -0.267 NA
ATOM     21  C   UNL     1      40.791   6.186  18.532  0.00  0.00    +0.108 C 
ATOM     22  C   UNL     1      41.573   6.824  19.663  0.00  0.00    +0.178 C 
ATOM     23  F   UNL     1      42.069   5.840  20.505  0.00  0.00    -0.236 F 
ATOM     24  C   UNL     1      40.553   7.674  20.401  0.00  0.00    +0.054 C 
ATOM     25  C   UNL     1      39.190   7.226  19.882  0.00  0.00    +0.075 C 
ENDBRANCH  19  20
ENDBRANCH  18  19
ENDBRANCH  17  18
ENDBRANCH  14  17
ENDBRANCH   2  11
BRANCH   1  26
ATOM     26  C   UNL     1      36.936  -2.162  16.353  0.00  0.00    -0.008 A 
ATOM     27  C   UNL     1      37.801  -1.355  15.587  0.00  0.00    -0.000 A 
ATOM     28  C   UNL     1      39.118  -1.755  15.342  0.00  0.00    +0.036 A 
ATOM     29  C   UNL     1      39.592  -2.968  15.847  0.00  0.00    +0.134 A 
ATOM     30  C   UNL     1      38.744  -3.781  16.607  0.00  0.00    +0.036 A 
ATOM     31  C   UNL     1      37.428  -3.382  16.857  0.00  0.00    -0.000 A 
BRANCH  29  32
ATOM     32  O   UNL     1      40.904  -3.357  15.586  0.00  0.00    -0.506 OA
ATOM     33  H   UNL     1      41.275  -4.233  15.932  0.00  0.00    +0.292 HD
ENDBRANCH  29  32
ENDBRANCH   1  26
BRANCH   7  34
ATOM     34  O   UNL     1      33.770  -7.194  19.672  0.00  0.00    -0.505 OA
ATOM     35  H   UNL     1      33.404  -7.744  18.904  0.00  0.00    +0.292 HD
ENDBRANCH   7  34
TORSDOF 8
ENDMDL
MODEL        9
REMARK  Name = CMP_0
REMARK  8 active torsions:
REMARK  status: ('A' for Active; 'I' for Inactive)
REMARK    1  A    between atoms: C_1  and  C_17
REMARK    2  A    between atoms: C_5  and  O_6
REMARK    3  A    between atoms: C_11  and  C_21
REMARK    4  A    between atoms: O_13  and  C_14
REMARK    5  A    between atoms: C_24  and  O_27
REMARK    6  A    between atoms: O_27  and  C_28
REMARK    7  A    between atoms: C_28  and  C_29
REMARK    8  A    between atoms: C_29  and  N_30
REMARK                            x       y       z     vdW  Elec       q    Type
REMARK                         _______ _______ _______ _____ _____    ______ ____
ROOT
ATOM      1  C   UNL     1      37.350   0.230  17.477  0.00  0.00    +0.118 C 
ATOM      2  C   UNL     1      35.939   0.500  18.033  0.00  0.00    +0.202 C 
ATOM      3  O   UNL     1      35.108   1.137  17.069  0.00  0.00    -0.473 OA
ATOM      4  C   UNL     1      35.499   2.242  16.308  0.00  0.00    +0.145 A 
ATOM      5  C   UNL     1      36.848   2.644  16.204  0.00  0.00    +0.063 A 
ATOM      6  C   UNL     1      37.186   3.708  15.357  0.00  0.00    +0.046 A 
ATOM      7  C   UNL     1      36.196   4.387  14.636  0.00  0.00    +0.134 A 
ATOM      8  C   UNL     1      34.861   3.994  14.754  0.00  0.00    +0.040 A 
ATOM      9  C   UNL     1      34.516   2.924  15.582  0.00  0.00    +0.041 A 
ATOM     10  S   UNL     1      38.192   1.804  17.067  0.00  0.00    -0.103 S 
ENDROOT
BRANCH   2  11
ATOM     11  C   UNL     1      35.288  -0.773  18.530  0.00  0.00    +0.019 A 
ATOM     12  C   UNL     1      35.712  -1.389  19.721  0.00  0.00    +0.002 A 
ATOM     13  C   UNL     1      35.047  -2.516  20.210  0.00  0.00    +0.037 A 
ATOM     14  C   UNL     1      33.945  -3.043  19.530  0.00  0.00    +0.139 A 
ATOM     15  C   UNL     1      33.515  -2.428  18.339  0.00  0.00    +0.037 A 
ATOM     16  C   UNL     1      34.179  -1.300  17.849  0.00  0.00    +0.002 A 
BRANCH  14  17
ATOM     17  O   UNL     1      33.304  -4.168  20.070  0.00  0.00    -0.474 OA
BRANCH  17  18
ATOM     18  C   UNL     1      33.027  -4.348  21.458  0.00  0.00    +0.223 C 
BRANCH  18  19
ATOM     19  C   UNL     1      32.110  -3.229  21.953  0.00  0.00    +0.120 C 
BRANCH  19  20
ATOM     20  N   UNL     1      32.691  -2.540  23.124  0.00  0.00    -0.267 NA
ATOM     21  C   UNL     1      31.730  -1.659  23.797  0.00  0.00    +0.108 C 
ATOM     22  C   UNL     1      32.198  -1.538  25.233  0.00  0.00    +0.178 C 
ATOM     23  F   UNL     1      33.076  -0.472  25.354  0.00  0.00    -0.236 F 
ATOM     24  C   UNL     1      32.922  -2.844  25.511  0.00  0.00    +0.054 C 
ATOM     25  C   UNL     1      33.135  -3.495  24.147  0.00  0.00    +0.075 C 
ENDBRANCH  19  20
ENDBRANCH  18  19
ENDBRANCH  17  18
ENDBRANCH  14  17
ENDBRANCH   2  11
BRANCH   1  26
ATOM     26  C   UNL     1      37.394  -0.803  16.357  0.00  0.00    -0.008 A 
ATOM     27  C   UNL     1      36.910  -0.539  15.060  0.00  0.00    -0.000 A 
ATOM     28  C   UNL     1      36.907  -1.541  14.084  0.00  0.00    +0.036 A 
ATOM     29  C   UNL     1      37.377  -2.821  14.385  0.00  0.00    +0.134 A 
ATOM     30  C   UNL     1      37.858  -3.097  15.670  0.00  0.00    +0.036 A 
ATOM     31  C   UNL     1      37.865  -2.099  16.647  0.00  0.00    -0.000 A 
BRANCH  29  32
ATOM     32  O   UNL     1      37.359  -3.809  13.404  0.00  0.00    -0.506 OA
ATOM     33  H   UNL     1      37.687  -4.749  13.594  0.00  0.00    +0.292 HD
ENDBRANCH  29  32
ENDBRANCH   1  26
BRANCH   7  34
ATOM     34  O   UNL     1      36.530   5.449  13.799  0.00  0.00    -0.505 OA
ATOM     35  H   UNL     1      37.489   5.759  13.693  0.00  0.00    +0.292 HD
ENDBRANCH   7  34
TORSDOF 8
ENDMDL
MODEL       10
REMARK  Name = CMP_0
REMARK  8 active torsions:
REMARK  status: ('A' for Active; 'I' for Inactive)
REMARK    1  A    between atoms: C_1  and  C_17
REMARK    2  A    between atoms: C_5  and  O_6
REMARK    3  A    between atoms: C_11  and  C_21
REMARK    4  A    between atoms: O_13  and  C_14
REMARK    5  A    between atoms: C_24  and  O_27
REMARK    6  A    between atoms: O_27  and  C_28
REMARK    7  A    between atoms: C_28  and  C_29
REMARK    8  A    between atoms: C_29  and  N_30
REMARK                            x       y       z     vdW  Elec       q    Type
REMARK                         _______ _______ _______ _____ _____    ______ ____
ROOT
ATOM      1  C   UNL     1      37.387   0.824  17.384  0.00  0.00    +0.118 C 
ATOM      2  C   UNL     1      35.914   0.947  17.816  0.00  0.00    +0.202 C 
ATOM      3  O   UNL     1      35.112   1.518  16.787  0.00  0.00    -0.473 OA
ATOM      4  C   UNL     1      35.458   2.668  16.073  0.00  0.00    +0.145 A 
ATOM      5  C   UNL     1      36.765   3.201  16.093  0.00  0.00    +0.063 A 
ATOM      6  C   UNL     1      37.071   4.306  15.289  0.00  0.00    +0.046 A 
ATOM      7  C   UNL     1      36.086   4.899  14.489  0.00  0.00    +0.134 A 
ATOM      8  C   UNL     1      34.791   4.378  14.485  0.00  0.00    +0.040 A 
ATOM      9  C   UNL     1      34.480   3.265  15.270  0.00  0.00    +0.041 A 
ATOM     10  S   UNL     1      38.104   2.479  17.065  0.00  0.00    -0.103 S 
ENDROOT
BRANCH   2  11
ATOM     11  C   UNL     1      35.349  -0.391  18.241  0.00  0.00    +0.019 A 
ATOM     12  C   UNL     1      34.386  -1.055  17.459  0.00  0.00    +0.002 A 
ATOM     13  C   UNL     1      33.935  -2.326  17.821  0.00  0.00    +0.037 A 
ATOM     14  C   UNL     1      34.440  -2.963  18.960  0.00  0.00    +0.139 A 
ATOM     15  C   UNL     1      35.406  -2.304  19.743  0.00  0.00    +0.037 A 
ATOM     16  C   UNL     1      35.859  -1.032  19.382  0.00  0.00    +0.002 A 
BRANCH  14  17
ATOM     17  O   UNL     1      33.965  -4.245  19.272  0.00  0.00    -0.474 OA
BRANCH  17  18
ATOM     18  C   UNL     1      33.309  -5.108  18.345  0.00  0.00    +0.223 C 
BRANCH  18  19
ATOM     19  C   UNL     1      34.329  -6.038  17.689  0.00  0.00    +0.120 C 
BRANCH  19  20
ATOM     20  N   UNL     1      34.400  -5.812  16.231  0.00  0.00    -0.267 NA
ATOM     21  C   UNL     1      33.184  -5.192  15.694  0.00  0.00    +0.108 C 
ATOM     22  C   UNL     1      33.600  -4.464  14.430  0.00  0.00    +0.178 C 
ATOM     23  F   UNL     1      33.500  -5.317  13.342  0.00  0.00    -0.236 F 
ATOM     24  C   UNL     1      35.053  -4.088  14.665  0.00  0.00    +0.054 C 
ATOM     25  C   UNL     1      35.497  -4.900  15.879  0.00  0.00    +0.075 C 
ENDBRANCH  19  20
ENDBRANCH  18  19
ENDBRANCH  17  18
ENDBRANCH  14  17
ENDBRANCH   2  11
BRANCH   1  26
ATOM     26  C   UNL     1      37.629  -0.180  16.263  0.00  0.00    -0.008 A 
ATOM     27  C   UNL     1      37.071  -0.033  14.978  0.00  0.00    -0.000 A 
ATOM     28  C   UNL     1      37.264  -1.016  14.002  0.00  0.00    +0.036 A 
ATOM     29  C   UNL     1      38.007  -2.163  14.293  0.00  0.00    +0.134 A 
ATOM     30  C   UNL     1      38.564  -2.323  15.566  0.00  0.00    +0.036 A 
ATOM     31  C   UNL     1      38.376  -1.342  16.543  0.00  0.00    -0.000 A 
BRANCH  29  32
ATOM     32  O   UNL     1      38.182  -3.136  13.312  0.00  0.00    -0.506 OA
ATOM     33  H   UNL     1      38.709  -3.982  13.495  0.00  0.00    +0.292 HD
ENDBRANCH  29  32
ENDBRANCH   1  26
BRANCH   7  34
ATOM     34  O   UNL     1      36.386   6.003  13.694  0.00  0.00    -0.505 OA
ATOM     35  H   UNL     1      37.316   6.405  13.677  0.00  0.00    +0.292 HD
ENDBRANCH   7  34
TORSDOF 8
ENDMDL
MODEL        2
REMARK  Name = CMP_0
REMARK  8 active torsions:
REMARK  status: ('A' for Active; 'I' for Inactive)
REMARK    1  A    between atoms: C_1  and  C_17
REMARK    2  A    between atoms: C_5  and  O_6
REMARK    3  A    between atoms: C_11  and  C_21
REMARK    4  A    between atoms: O_13  and  C_14
REMARK    5  A    between atoms: C_24  and  O_27
REMARK    6  A    between atoms: O_27  and  C_28
REMARK    7  A    between atoms: C_28  and  C_29
REMARK    8  A    between atoms: C_29  and  N_30
REMARK                            x       y       z     vdW  Elec       q    Type
REMARK                         _______ _______ _______ _____ _____    ______ ____
ROOT
ATOM      1  C   UNL     1      37.617  -1.459  17.599  0.00  0.00    +0.118 C 
ATOM      2  C   UNL     1      36.806  -0.741  18.707  0.00  0.00    +0.202 C 
ATOM      3  O   UNL     1      35.872   0.216  18.198  0.00  0.00    -0.473 OA
ATOM      4  C   UNL     1      36.012   0.939  17.005  0.00  0.00    +0.145 A 
ATOM      5  C   UNL     1      37.103   0.749  16.136  0.00  0.00    +0.063 A 
ATOM      6  C   UNL     1      37.110   1.372  14.882  0.00  0.00    +0.046 A 
ATOM      7  C   UNL     1      36.061   2.224  14.508  0.00  0.00    +0.134 A 
ATOM      8  C   UNL     1      35.001   2.447  15.391  0.00  0.00    +0.040 A 
ATOM      9  C   UNL     1      34.977   1.807  16.633  0.00  0.00    +0.041 A 
ATOM     10  S   UNL     1      38.530  -0.232  16.611  0.00  0.00    -0.103 S 
ENDROOT
BRANCH   2  11
ATOM     11  C   UNL     1      36.120  -1.731  19.628  0.00  0.00    +0.019 A 
ATOM     12  C   UNL     1      34.716  -1.785  19.665  0.00  0.00    +0.002 A 
ATOM     13  C   UNL     1      34.061  -2.671  20.525  0.00  0.00    +0.037 A 
ATOM     14  C   UNL     1      34.792  -3.527  21.357  0.00  0.00    +0.139 A 
ATOM     15  C   UNL     1      36.197  -3.458  21.343  0.00  0.00    +0.037 A 
ATOM     16  C   UNL     1      36.853  -2.571  20.485  0.00  0.00    +0.002 A 
BRANCH  14  17
ATOM     17  O   UNL     1      34.081  -4.409  22.187  0.00  0.00    -0.474 OA
BRANCH  17  18
ATOM     18  C   UNL     1      32.895  -4.097  22.921  0.00  0.00    +0.223 C 
BRANCH  18  19
ATOM     19  C   UNL     1      33.223  -3.242  24.151  0.00  0.00    +0.120 C 
BRANCH  19  20
ATOM     20  N   UNL     1      31.989  -2.751  24.809  0.00  0.00    -0.267 NA
ATOM     21  C   UNL     1      32.136  -2.712  26.276  0.00  0.00    +0.108 C 
ATOM     22  C   UNL     1      32.509  -1.288  26.684  0.00  0.00    +0.178 C 
ATOM     23  F   UNL     1      31.643  -0.823  27.660  0.00  0.00    -0.236 F 
ATOM     24  C   UNL     1      32.381  -0.455  25.422  0.00  0.00    +0.054 C 
ATOM     25  C   UNL     1      31.690  -1.364  24.424  0.00  0.00    +0.075 C 
ENDBRANCH  19  20
ENDBRANCH  18  19
ENDBRANCH  17  18
ENDBRANCH  14  17
ENDBRANCH   2  11
BRANCH   1  26
ATOM     26  C   UNL     1      36.883  -2.461  16.715  0.00  0.00    -0.008 A 
ATOM     27  C   UNL     1      35.677  -2.165  16.047  0.00  0.00    -0.000 A 
ATOM     28  C   UNL     1      35.065  -3.119  15.228  0.00  0.00    +0.036 A 
ATOM     29  C   UNL     1      35.653  -4.376  15.045  0.00  0.00    +0.134 A 
ATOM     30  C   UNL     1      36.859  -4.674  15.683  0.00  0.00    +0.036 A 
ATOM     31  C   UNL     1      37.471  -3.725  16.506  0.00  0.00    -0.000 A 
BRANCH  29  32
ATOM     32  O   UNL     1      35.051  -5.333  14.231  0.00  0.00    -0.506 OA
ATOM     33  H   UNL     1      34.177  -5.147  13.753  0.00  0.00    +0.292 HD
ENDBRANCH  29  32
ENDBRANCH   1  26
BRANCH   7  34
ATOM     34  O   UNL     1      36.067   2.856  13.267  0.00  0.00    -0.505 OA
ATOM     35  H   UNL     1      36.815   2.707  12.600  0.00  0.00    +0.292 HD
ENDBRANCH   7  34
TORSDOF 8
ENDMDL
MODEL        3
REMARK  Name = CMP_0
REMARK  8 active torsions:
REMARK  status: ('A' for Active; 'I' for Inactive)
REMARK    1  A    between atoms: C_1  and  C_17
REMARK    2  A    between atoms: C_5  and  O_6
REMARK    3  A    between atoms: C_11  and  C_21
REMARK    4  A    between atoms: O_13  and  C_14
REMARK    5  A    between atoms: C_24  and  O_27
REMARK    6  A    between atoms: O_27  and  C_28
REMARK    7  A    between atoms: C_28  and  C_29
REMARK    8  A    between atoms: C_29  and  N_30
REMARK                            x       y       z     vdW  Elec       q    Type
REMARK                         _______ _______ _______ _____ _____    ______ ____
ROOT
ATOM      1  C   UNL     1      37.773  -0.281  17.640  0.00  0.00    +0.118 C 
ATOM      2  C   UNL     1      36.624   0.160  18.581  0.00  0.00    +0.202 C 
ATOM      3  O   UNL     1      35.603   0.911  17.918  0.00  0.00    -0.473 OA
ATOM      4  C   UNL     1      35.787   1.724  16.791  0.00  0.00    +0.145 A 
ATOM      5  C   UNL     1      37.035   1.843  16.150  0.00  0.00    +0.063 A 
ATOM      6  C   UNL     1      37.128   2.533  14.934  0.00  0.00    +0.046 A 
ATOM      7  C   UNL     1      35.996   3.147  14.379  0.00  0.00    +0.134 A 
ATOM      8  C   UNL     1      34.769   3.066  15.042  0.00  0.00    +0.040 A 
ATOM      9  C   UNL     1      34.665   2.356  16.241  0.00  0.00    +0.041 A 
ATOM     10  S   UNL     1      38.539   1.183  16.875  0.00  0.00    -0.103 S 
ENDROOT
BRANCH   2  11
ATOM     11  C   UNL     1      36.032  -1.018  19.329  0.00  0.00    +0.019 A 
ATOM     12  C   UNL     1      36.857  -1.801  20.155  0.00  0.00    +0.002 A 
ATOM     13  C   UNL     1      36.338  -2.907  20.833  0.00  0.00    +0.037 A 
ATOM     14  C   UNL     1      34.986  -3.250  20.710  0.00  0.00    +0.139 A 
ATOM     15  C   UNL     1      34.163  -2.485  19.864  0.00  0.00    +0.037 A 
ATOM     16  C   UNL     1      34.680  -1.380  19.183  0.00  0.00    +0.002 A 
BRANCH  14  17
ATOM     17  O   UNL     1      34.517  -4.361  21.430  0.00  0.00    -0.474 OA
BRANCH  17  18
ATOM     18  C   UNL     1      33.404  -4.369  22.326  0.00  0.00    +0.223 C 
BRANCH  18  19
ATOM     19  C   UNL     1      33.644  -3.419  23.505  0.00  0.00    +0.120 C 
BRANCH  19  20
ATOM     20  N   UNL     1      32.410  -3.231  24.304  0.00  0.00    -0.267 NA
ATOM     21  C   UNL     1      32.680  -3.323  25.751  0.00  0.00    +0.108 C 
ATOM     22  C   UNL     1      32.842  -1.907  26.301  0.00  0.00    +0.178 C 
ATOM     23  F   UNL     1      32.002  -1.713  27.386  0.00  0.00    -0.236 F 
ATOM     24  C   UNL     1      32.460  -0.980  25.162  0.00  0.00    +0.054 C 
ATOM     25  C   UNL     1      31.846  -1.887  24.112  0.00  0.00    +0.075 C 
ENDBRANCH  19  20
ENDBRANCH  18  19
ENDBRANCH  17  18
ENDBRANCH  14  17
ENDBRANCH   2  11
BRANCH   1  26
ATOM     26  C   UNL     1      37.473  -1.364  16.609  0.00  0.00    -0.008 A 
ATOM     27  C   UNL     1      36.282  -1.404  15.854  0.00  0.00    -0.000 A 
ATOM     28  C   UNL     1      36.077  -2.409  14.903  0.00  0.00    +0.036 A 
ATOM     29  C   UNL     1      37.061  -3.378  14.675  0.00  0.00    +0.134 A 
ATOM     30  C   UNL     1      38.253  -3.336  15.400  0.00  0.00    +0.036 A 
ATOM     31  C   UNL     1      38.461  -2.336  16.354  0.00  0.00    -0.000 A 
BRANCH  29  32
ATOM     32  O   UNL     1      36.865  -4.383  13.730  0.00  0.00    -0.506 OA
ATOM     33  H   UNL     1      36.012  -4.440  13.187  0.00  0.00    +0.292 HD
ENDBRANCH  29  32
ENDBRANCH   1  26
BRANCH   7  34
ATOM     34  O   UNL     1      36.084   3.844  13.176  0.00  0.00    -0.505 OA
ATOM     35  H   UNL     1      36.956   3.912  12.666  0.00  0.00    +0.292 HD
ENDBRANCH   7  34
TORSDOF 8
ENDMDL
MODEL        4
REMARK  Name = CMP_0
REMARK  8 active torsions:
REMARK  status: ('A' for Active; 'I' for Inactive)
REMARK    1  A    between atoms: C_1  and  C_17
REMARK    2  A    between atoms: C_5  and  O_6
REMARK    3  A    between atoms: C_11  and  C_21
REMARK    4  A    between atoms: O_13  and  C_14
REMARK    5  A    between atoms: C_24  and  O_27
REMARK    6  A    between atoms: O_27  and  C_28
REMARK    7  A    between atoms: C_28  and  C_29
REMARK    8  A    between atoms: C_29  and  N_30
REMARK                            x       y       z     vdW  Elec       q    Type
REMARK                         _______ _______ _______ _____ _____    ______ ____
ROOT
ATOM      1  C   UNL     1      36.343  -4.341  17.999  0.00  0.00    +0.118 C 
ATOM      2  C   UNL     1      36.638  -3.205  19.011  0.00  0.00    +0.202 C 
ATOM      3  O   UNL     1      36.471  -1.895  18.459  0.00  0.00    -0.473 OA
ATOM      4  C   UNL     1      36.646  -1.547  17.113  0.00  0.00    +0.145 A 
ATOM      5  C   UNL     1      36.968  -2.500  16.128  0.00  0.00    +0.063 A 
ATOM      6  C   UNL     1      36.967  -2.130  14.777  0.00  0.00    +0.046 A 
ATOM      7  C   UNL     1      36.698  -0.806  14.405  0.00  0.00    +0.134 A 
ATOM      8  C   UNL     1      36.424   0.148  15.389  0.00  0.00    +0.040 A 
ATOM      9  C   UNL     1      36.398  -0.222  16.735  0.00  0.00    +0.041 A 
ATOM     10  S   UNL     1      37.440  -4.179  16.554  0.00  0.00    -0.103 S 
ENDROOT
BRANCH   2  11
ATOM     11  C   UNL     1      35.828  -3.366  20.282  0.00  0.00    +0.019 A 
ATOM     12  C   UNL     1      36.256  -4.273  21.267  0.00  0.00    +0.002 A 
ATOM     13  C   UNL     1      35.512  -4.457  22.435  0.00  0.00    +0.037 A 
ATOM     14  C   UNL     1      34.332  -3.734  22.649  0.00  0.00    +0.139 A 
ATOM     15  C   UNL     1      33.886  -2.845  21.655  0.00  0.00    +0.037 A 
ATOM     16  C   UNL     1      34.627  -2.662  20.485  0.00  0.00    +0.002 A 
BRANCH  14  17
ATOM     17  O   UNL     1      33.636  -3.947  23.850  0.00  0.00    -0.474 OA
BRANCH  17  18
ATOM     18  C   UNL     1      32.435  -3.283  24.252  0.00  0.00    +0.223 C 
BRANCH  18  19
ATOM     19  C   UNL     1      32.439  -3.013  25.762  0.00  0.00    +0.120 C 
BRANCH  19  20
ATOM     20  N   UNL     1      31.923  -1.657  26.066  0.00  0.00    -0.267 NA
ATOM     21  C   UNL     1      30.826  -1.277  25.154  0.00  0.00    +0.108 C 
ATOM     22  C   UNL     1      29.499  -1.567  25.852  0.00  0.00    +0.178 C 
ATOM     23  F   UNL     1      28.692  -0.441  25.839  0.00  0.00    -0.236 F 
ATOM     24  C   UNL     1      29.860  -1.944  27.277  0.00  0.00    +0.054 C 
ATOM     25  C   UNL     1      31.331  -1.597  27.410  0.00  0.00    +0.075 C 
ENDBRANCH  19  20
ENDBRANCH  18  19
ENDBRANCH  17  18
ENDBRANCH  14  17
ENDBRANCH   2  11
BRANCH   1  26
ATOM     26  C   UNL     1      34.893  -4.566  17.583  0.00  0.00    -0.008 A 
ATOM     27  C   UNL     1      34.103  -3.574  16.967  0.00  0.00    -0.000 A 
ATOM     28  C   UNL     1      32.786  -3.849  16.584  0.00  0.00    +0.036 A 
ATOM     29  C   UNL     1      32.242  -5.122  16.792  0.00  0.00    +0.134 A 
ATOM     30  C   UNL     1      33.021  -6.120  17.381  0.00  0.00    +0.036 A 
ATOM     31  C   UNL     1      34.336  -5.847  17.769  0.00  0.00    -0.000 A 
BRANCH  29  32
ATOM     32  O   UNL     1      30.931  -5.407  16.414  0.00  0.00    -0.506 OA
ATOM     33  H   UNL     1      30.340  -4.705  15.983  0.00  0.00    +0.292 HD
ENDBRANCH  29  32
ENDBRANCH   1  26
BRANCH   7  34
ATOM     34  O   UNL     1      36.706  -0.429  13.063  0.00  0.00    -0.505 OA
ATOM     35  H   UNL     1      36.890  -1.099  12.326  0.00  0.00    +0.292 HD
ENDBRANCH   7  34
TORSDOF 8
ENDMDL
MODEL        5
REMARK  Name = CMP_0
REMARK  8 active torsions:
REMARK  status: ('A' for Active; 'I' for Inactive)
REMARK    1  A    between atoms: C_1  and  C_17
REMARK    2  A    between atoms: C_5  and  O_6
REMARK    3  A    between atoms: C_11  and  C_21
REMARK    4  A    between atoms: O_13  and  C_14
REMARK    5  A    between atoms: C_24  and  O_27
REMARK    6  A    between atoms: O_27  and  C_28
REMARK    7  A    between atoms: C_28  and  C_29
REMARK    8  A    between atoms: C_29  and  N_30
REMARK                            x       y       z     vdW  Elec       q    Type
REMARK                         _______ _______ _______ _____ _____    ______ ____
ROOT
ATOM      1  C   UNL     1      38.096   0.001  17.443  0.00  0.00    +0.118 C 
ATOM      2  C   UNL     1      36.951   0.255  18.455  0.00  0.00    +0.202 C 
ATOM      3  O   UNL     1      35.820   0.917  17.881  0.00  0.00    -0.473 OA
ATOM      4  C   UNL     1      35.857   1.805  16.797  0.00  0.00    +0.145 A 
ATOM      5  C   UNL     1      37.051   2.103  16.112  0.00  0.00    +0.063 A 
ATOM      6  C   UNL     1      37.007   2.863  14.937  0.00  0.00    +0.046 A 
ATOM      7  C   UNL     1      35.788   3.370  14.466  0.00  0.00    +0.134 A 
ATOM      8  C   UNL     1      34.610   3.111  15.173  0.00  0.00    +0.040 A 
ATOM      9  C   UNL     1      34.646   2.331  16.331  0.00  0.00    +0.041 A 
ATOM     10  S   UNL     1      38.653   1.584  16.735  0.00  0.00    -0.103 S 
ENDROOT
BRANCH   2  11
ATOM     11  C   UNL     1      36.533  -1.023  19.157  0.00  0.00    +0.019 A 
ATOM     12  C   UNL     1      35.166  -1.316  19.305  0.00  0.00    +0.002 A 
ATOM     13  C   UNL     1      34.757  -2.474  19.972  0.00  0.00    +0.037 A 
ATOM     14  C   UNL     1      35.700  -3.367  20.493  0.00  0.00    +0.139 A 
ATOM     15  C   UNL     1      37.069  -3.065  20.370  0.00  0.00    +0.037 A 
ATOM     16  C   UNL     1      37.480  -1.906  19.706  0.00  0.00    +0.002 A 
BRANCH  14  17
ATOM     17  O   UNL     1      35.230  -4.524  21.136  0.00  0.00    -0.474 OA
BRANCH  17  18
ATOM     18  C   UNL     1      35.363  -5.863  20.654  0.00  0.00    +0.223 C 
BRANCH  18  19
ATOM     19  C   UNL     1      34.400  -6.123  19.489  0.00  0.00    +0.120 C 
BRANCH  19  20
ATOM     20  N   UNL     1      35.109  -6.703  18.325  0.00  0.00    -0.267 NA
ATOM     21  C   UNL     1      34.401  -6.421  17.062  0.00  0.00    +0.108 C 
ATOM     22  C   UNL     1      35.046  -5.198  16.412  0.00  0.00    +0.178 C 
ATOM     23  F   UNL     1      35.399  -5.479  15.102  0.00  0.00    -0.236 F 
ATOM     24  C   UNL     1      36.281  -4.898  17.241  0.00  0.00    +0.054 C 
ATOM     25  C   UNL     1      36.439  -6.101  18.152  0.00  0.00    +0.075 C 
ENDBRANCH  19  20
ENDBRANCH  18  19
ENDBRANCH  17  18
ENDBRANCH  14  17
ENDBRANCH   2  11
BRANCH   1  26
ATOM     26  C   UNL     1      37.873  -1.051  16.363  0.00  0.00    -0.008 A 
ATOM     27  C   UNL     1      36.641  -1.228  15.698  0.00  0.00    -0.000 A 
ATOM     28  C   UNL     1      36.506  -2.195  14.697  0.00  0.00    +0.036 A 
ATOM     29  C   UNL     1      37.599  -2.988  14.328  0.00  0.00    +0.134 A 
ATOM     30  C   UNL     1      38.829  -2.808  14.963  0.00  0.00    +0.036 A 
ATOM     31  C   UNL     1      38.967  -1.846  15.967  0.00  0.00    -0.000 A 
BRANCH  29  32
ATOM     32  O   UNL     1      37.474  -3.954  13.332  0.00  0.00    -0.506 OA
ATOM     33  H   UNL     1      36.594  -4.108  12.851  0.00  0.00    +0.292 HD
ENDBRANCH  29  32
ENDBRANCH   1  26
BRANCH   7  34
ATOM     34  O   UNL     1      35.737   4.136  13.303  0.00  0.00    -0.505 OA
ATOM     35  H   UNL     1      36.571   4.333  12.762  0.00  0.00    +0.292 HD
ENDBRANCH   7  34
TORSDOF 8
ENDMDL
MODEL        6
REMARK  Name = CMP_0
REMARK  8 active torsions:
REMARK  status: ('A' for Active; 'I' for Inactive)
REMARK    1  A    between atoms: C_1  and  C_17
REMARK    2  A    between atoms: C_5  and  O_6
REMARK    3  A    between atoms: C_11  and  C_21
REMARK    4  A    between atoms: O_13  and  C_14
REMARK    5  A    between atoms: C_24  and  O_27
REMARK    6  A    between atoms: O_27  and  C_28
REMARK    7  A    between atoms: C_28  and  C_29
REMARK    8  A    between atoms: C_29  and  N_30
REMARK                            x       y       z     vdW  Elec       q    Type
REMARK                         _______ _______ _______ _____ _____    ______ ____
ROOT
ATOM      1  C   UNL     1      37.195   0.529  17.874  0.00  0.00    +0.118 C 
ATOM      2  C   UNL     1      35.681   0.592  18.196  0.00  0.00    +0.202 C 
ATOM      3  O   UNL     1      34.926   1.333  17.232  0.00  0.00    -0.473 OA
ATOM      4  C   UNL     1      35.410   2.395  16.456  0.00  0.00    +0.145 A 
ATOM      5  C   UNL     1      36.751   2.819  16.518  0.00  0.00    +0.063 A 
ATOM      6  C   UNL     1      37.222   3.770  15.604  0.00  0.00    +0.046 A 
ATOM      7  C   UNL     1      36.354   4.339  14.662  0.00  0.00    +0.134 A 
ATOM      8  C   UNL     1      35.012   3.950  14.633  0.00  0.00    +0.040 A 
ATOM      9  C   UNL     1      34.544   2.982  15.525  0.00  0.00    +0.041 A 
ATOM     10  S   UNL     1      37.876   2.216  17.780  0.00  0.00    -0.103 S 
ENDROOT
BRANCH   2  11
ATOM     11  C   UNL     1      35.094  -0.791  18.397  0.00  0.00    +0.019 A 
ATOM     12  C   UNL     1      35.537  -1.581  19.472  0.00  0.00    +0.002 A 
ATOM     13  C   UNL     1      35.029  -2.869  19.662  0.00  0.00    +0.037 A 
ATOM     14  C   UNL     1      34.066  -3.392  18.792  0.00  0.00    +0.139 A 
ATOM     15  C   UNL     1      33.640  -2.614  17.699  0.00  0.00    +0.037 A 
ATOM     16  C   UNL     1      34.148  -1.327  17.506  0.00  0.00    +0.002 A 
BRANCH  14  17
ATOM     17  O   UNL     1      33.579  -4.685  19.043  0.00  0.00    -0.474 OA
BRANCH  17  18
ATOM     18  C   UNL     1      33.872  -5.855  18.275  0.00  0.00    +0.223 C 
BRANCH  18  19
ATOM     19  C   UNL     1      35.309  -6.327  18.527  0.00  0.00    +0.120 C 
BRANCH  19  20
ATOM     20  N   UNL     1      36.019  -6.590  17.253  0.00  0.00    -0.267 NA
ATOM     21  C   UNL     1      35.401  -5.862  16.128  0.00  0.00    +0.108 C 
ATOM     22  C   UNL     1      36.185  -4.571  15.902  0.00  0.00    +0.178 C 
ATOM     23  F   UNL     1      36.574  -4.470  14.576  0.00  0.00    -0.236 F 
ATOM     24  C   UNL     1      37.401  -4.668  16.805  0.00  0.00    +0.054 C 
ATOM     25  C   UNL     1      37.404  -6.102  17.299  0.00  0.00    +0.075 C 
ENDBRANCH  19  20
ENDBRANCH  18  19
ENDBRANCH  17  18
ENDBRANCH  14  17
ENDBRANCH   2  11
BRANCH   1  26
ATOM     26  C   UNL     1      37.637  -0.324  16.690  0.00  0.00    -0.008 A 
ATOM     27  C   UNL     1      36.878  -0.460  15.509  0.00  0.00    -0.000 A 
ATOM     28  C   UNL     1      37.350  -1.236  14.446  0.00  0.00    +0.036 A 
ATOM     29  C   UNL     1      38.593  -1.874  14.534  0.00  0.00    +0.134 A 
ATOM     30  C   UNL     1      39.364  -1.728  15.688  0.00  0.00    +0.036 A 
ATOM     31  C   UNL     1      38.894  -0.957  16.755  0.00  0.00    -0.000 A 
BRANCH  29  32
ATOM     32  O   UNL     1      39.072  -2.649  13.480  0.00  0.00    -0.506 OA
ATOM     33  H   UNL     1      38.537  -2.773  12.627  0.00  0.00    +0.292 HD
ENDBRANCH  29  32
ENDBRANCH   1  26
BRANCH   7  34
ATOM     34  O   UNL     1      36.814   5.294  13.757  0.00  0.00    -0.505 OA
ATOM     35  H   UNL     1      37.783   5.589  13.745  0.00  0.00    +0.292 HD
ENDBRANCH   7  34
TORSDOF 8
ENDMDL
MODEL        7
REMARK  Name = CMP_0
REMARK  8 active torsions:
REMARK  status: ('A' for Active; 'I' for Inactive)
REMARK    1  A    between atoms: C_1  and  C_17
REMARK    2  A    between atoms: C_5  and  O_6
REMARK    3  A    between atoms: C_11  and  C_21
REMARK    4  A    between atoms: O_13  and  C_14
REMARK    5  A    between atoms: C_24  and  O_27
REMARK    6  A    between atoms: O_27  and  C_28
REMARK    7  A    between atoms: C_28  and  C_29
REMARK    8  A    between atoms: C_29  and  N_30
REMARK                            x       y       z     vdW  Elec       q    Type
REMARK                         _______ _______ _______ _____ _____    ______ ____
ROOT
ATOM      1  C   UNL     1      37.569  -0.497  14.396  0.00  0.00    +0.118 C 
ATOM      2  C   UNL     1      37.876  -2.002  14.193  0.00  0.00    +0.202 C 
ATOM      3  O   UNL     1      39.266  -2.320  14.312  0.00  0.00    -0.473 OA
ATOM      4  C   UNL     1      40.330  -1.456  14.018  0.00  0.00    +0.145 A 
ATOM      5  C   UNL     1      40.123  -0.124  13.610  0.00  0.00    +0.063 A 
ATOM      6  C   UNL     1      41.216   0.744  13.491  0.00  0.00    +0.046 A 
ATOM      7  C   UNL     1      42.518   0.281  13.728  0.00  0.00    +0.134 A 
ATOM      8  C   UNL     1      42.724  -1.054  14.089  0.00  0.00    +0.040 A 
ATOM      9  C   UNL     1      41.635  -1.916  14.235  0.00  0.00    +0.041 A 
ATOM     10  S   UNL     1      38.493   0.490  13.175  0.00  0.00    -0.103 S 
ENDROOT
BRANCH   2  11
ATOM     11  C   UNL     1      37.040  -2.871  15.113  0.00  0.00    +0.019 A 
ATOM     12  C   UNL     1      37.654  -3.912  15.829  0.00  0.00    +0.002 A 
ATOM     13  C   UNL     1      36.900  -4.743  16.662  0.00  0.00    +0.037 A 
ATOM     14  C   UNL     1      35.521  -4.546  16.805  0.00  0.00    +0.139 A 
ATOM     15  C   UNL     1      34.898  -3.521  16.069  0.00  0.00    +0.037 A 
ATOM     16  C   UNL     1      35.650  -2.692  15.234  0.00  0.00    +0.002 A 
BRANCH  14  17
ATOM     17  O   UNL     1      34.818  -5.399  17.670  0.00  0.00    -0.474 OA
BRANCH  17  18
ATOM     18  C   UNL     1      34.908  -5.407  19.097  0.00  0.00    +0.223 C 
BRANCH  18  19
ATOM     19  C   UNL     1      34.024  -4.312  19.706  0.00  0.00    +0.120 C 
BRANCH  19  20
ATOM     20  N   UNL     1      34.807  -3.425  20.598  0.00  0.00    -0.267 NA
ATOM     21  C   UNL     1      36.256  -3.540  20.342  0.00  0.00    +0.108 C 
ATOM     22  C   UNL     1      36.672  -2.402  19.412  0.00  0.00    +0.178 C 
ATOM     23  F   UNL     1      37.738  -1.702  19.953  0.00  0.00    -0.236 F 
ATOM     24  C   UNL     1      35.454  -1.505  19.294  0.00  0.00    +0.054 C 
ATOM     25  C   UNL     1      34.495  -2.009  20.356  0.00  0.00    +0.075 C 
ENDBRANCH  19  20
ENDBRANCH  18  19
ENDBRANCH  17  18
ENDBRANCH  14  17
ENDBRANCH   2  11
BRANCH   1  26
ATOM     26  C   UNL     1      37.706   0.076  15.802  0.00  0.00    -0.008 A 
ATOM     27  C   UNL     1      38.828  -0.156  16.625  0.00  0.00    -0.000 A 
ATOM     28  C   UNL     1      38.907   0.419  17.897  0.00  0.00    +0.036 A 
ATOM     29  C   UNL     1      37.880   1.248  18.364  0.00  0.00    +0.134 A 
ATOM     30  C   UNL     1      36.775   1.503  17.550  0.00  0.00    +0.036 A 
ATOM     31  C   UNL     1      36.690   0.927  16.279  0.00  0.00    -0.000 A 
BRANCH  29  32
ATOM     32  O   UNL     1      37.950   1.826  19.630  0.00  0.00    -0.506 OA
ATOM     33  H   UNL     1      38.740   1.661  20.244  0.00  0.00    +0.292 HD
ENDBRANCH  29  32
ENDBRANCH   1  26
BRANCH   7  34
ATOM     34  O   UNL     1      43.610   1.136  13.600  0.00  0.00    -0.505 OA
ATOM     35  H   UNL     1      43.494   2.111  13.351  0.00  0.00    +0.292 HD
ENDBRANCH   7  34
TORSDOF 8
ENDMDL
MODEL        8
REMARK  Name = CMP_0
REMARK  8 active torsions:
REMARK  status: ('A' for Active; 'I' for Inactive)
REMARK    1  A    between atoms: C_1  and  C_17
REMARK    2  A    between atoms: C_5  and  O_6
REMARK    3  A    between atoms: C_11  and  C_21
REMARK    4  A    between atoms: O_13  and  C_14
REMARK    5  A    between atoms: C_24  and  O_27
REMARK    6  A    between atoms: O_27  and  C_28
REMARK    7  A    between atoms: C_28  and  C_29
REMARK    8  A    between atoms: C_29  and  N_30
REMARK                            x       y       z     vdW  Elec       q    Type
REMARK                         _______ _______ _______ _____ _____    ______ ____
ROOT
ATOM      1  C   UNL     1      35.266  -1.495  16.636  0.00  0.00    +0.118 C 
ATOM      2  C   UNL     1      34.958  -0.585  17.851  0.00  0.00    +0.202 C 
ATOM      3  O   UNL     1      34.899  -1.295  19.092  0.00  0.00    -0.473 OA
ATOM      4  C   UNL     1      34.525  -2.636  19.249  0.00  0.00    +0.145 A 
ATOM      5  C   UNL     1      34.207  -3.459  18.151  0.00  0.00    +0.063 A 
ATOM      6  C   UNL     1      34.004  -4.831  18.348  0.00  0.00    +0.046 A 
ATOM      7  C   UNL     1      34.066  -5.380  19.636  0.00  0.00    +0.134 A 
ATOM      8  C   UNL     1      34.336  -4.552  20.730  0.00  0.00    +0.040 A 
ATOM      9  C   UNL     1      34.566  -3.188  20.536  0.00  0.00    +0.041 A 
ATOM     10  S   UNL     1      33.995  -2.792  16.498  0.00  0.00    -0.103 S 
ENDROOT
BRANCH   2  11
ATOM     11  C   UNL     1      35.925   0.579  17.938  0.00  0.00    +0.019 A 
ATOM     12  C   UNL     1      35.953   1.535  16.907  0.00  0.00    +0.002 A 
ATOM     13  C   UNL     1      36.855   2.602  16.953  0.00  0.00    +0.037 A 
ATOM     14  C   UNL     1      37.739   2.742  18.029  0.00  0.00    +0.139 A 
ATOM     15  C   UNL     1      37.733   1.773  19.049  0.00  0.00    +0.037 A 
ATOM     16  C   UNL     1      36.834   0.705  19.004  0.00  0.00    +0.002 A 
BRANCH  14  17
ATOM     17  O   UNL     1      38.609   3.844  18.030  0.00  0.00    -0.474 OA
BRANCH  17  18
ATOM     18  C   UNL     1      38.428   5.057  17.295  0.00  0.00    +0.223 C 
BRANCH  18  19
ATOM     19  C   UNL     1      39.779   5.706  16.970  0.00  0.00    +0.120 C 
BRANCH  19  20
ATOM     20  N   UNL     1      39.914   7.025  17.632  0.00  0.00    -0.267 NA
ATOM     21  C   UNL     1      38.886   7.218  18.672  0.00  0.00    +0.108 C 
ATOM     22  C   UNL     1      39.498   6.859  20.025  0.00  0.00    +0.178 C 
ATOM     23  F   UNL     1      39.315   7.895  20.926  0.00  0.00    -0.236 F 
ATOM     24  C   UNL     1      40.976   6.640  19.760  0.00  0.00    +0.054 C 
ATOM     25  C   UNL     1      41.195   7.139  18.345  0.00  0.00    +0.075 C 
ENDBRANCH  19  20
ENDBRANCH  18  19
ENDBRANCH  17  18
ENDBRANCH  14  17
ENDBRANCH   2  11
BRANCH   1  26
ATOM     26  C   UNL     1      36.673  -2.070  16.515  0.00  0.00    -0.008 A 
ATOM     27  C   UNL     1      37.387  -2.603  17.609  0.00  0.00    -0.000 A 
ATOM     28  C   UNL     1      38.665  -3.140  17.430  0.00  0.00    +0.036 A 
ATOM     29  C   UNL     1      39.246  -3.173  16.157  0.00  0.00    +0.134 A 
ATOM     30  C   UNL     1      38.541  -2.670  15.062  0.00  0.00    +0.036 A 
ATOM     31  C   UNL     1      37.265  -2.128  15.238  0.00  0.00    -0.000 A 
BRANCH  29  32
ATOM     32  O   UNL     1      40.519  -3.707  15.968  0.00  0.00    -0.506 OA
ATOM     33  H   UNL     1      41.056  -4.082  16.742  0.00  0.00    +0.292 HD
ENDBRANCH  29  32
ENDBRANCH   1  26
BRANCH   7  34
ATOM     34  O   UNL     1      33.853  -6.742  19.840  0.00  0.00    -0.505 OA
ATOM     35  H   UNL     1      33.666  -7.370  19.068  0.00  0.00    +0.292 HD
ENDBRANCH   7  34
TORSDOF 8
ENDMDL
MODEL        9
REMARK  Name = CMP_0
REMARK  8 active torsions:
REMARK  status: ('A' for Active; 'I' for Inactive)
REMARK    1  A    between atoms: C_1  and  C_17
REMARK    2  A    between atoms: C_5  and  O_6
REMARK    3  A    between atoms: C_11  and  C_21
REMARK    4  A    between atoms: O_13  and  C_14
REMARK    5  A    between atoms: C_24  and  O_27
REMARK    6  A    between atoms: O_27  and  C_28
REMARK    7  A    between atoms: C_28  and  C_29
REMARK    8  A    between atoms: C_29  and  N_30
REMARK                            x       y       z     vdW  Elec       q    Type
REMARK                         _______ _______ _______ _____ _____    ______ ____
ROOT
ATOM      1  C   UNL     1      37.589  -0.429  14.333  0.00  0.00    +0.118 C 
ATOM      2  C   UNL     1      37.920  -1.934  14.180  0.00  0.00    +0.202 C 
ATOM      3  O   UNL     1      39.317  -2.224  14.299  0.00  0.00    -0.473 OA
ATOM      4  C   UNL     1      40.363  -1.353  13.966  0.00  0.00    +0.145 A 
ATOM      5  C   UNL     1      40.130  -0.040  13.513  0.00  0.00    +0.063 A 
ATOM      6  C   UNL     1      41.207   0.841  13.355  0.00  0.00    +0.046 A 
ATOM      7  C   UNL     1      42.519   0.409  13.597  0.00  0.00    +0.134 A 
ATOM      8  C   UNL     1      42.750  -0.908  14.002  0.00  0.00    +0.040 A 
ATOM      9  C   UNL     1      41.677  -1.784  14.187  0.00  0.00    +0.041 A 
ATOM     10  S   UNL     1      38.486   0.530  13.070  0.00  0.00    -0.103 S 
ENDROOT
BRANCH   2  11
ATOM     11  C   UNL     1      37.107  -2.785  15.136  0.00  0.00    +0.019 A 
ATOM     12  C   UNL     1      37.765  -3.550  16.114  0.00  0.00    +0.002 A 
ATOM     13  C   UNL     1      37.038  -4.362  16.989  0.00  0.00    +0.037 A 
ATOM     14  C   UNL     1      35.642  -4.419  16.913  0.00  0.00    +0.139 A 
ATOM     15  C   UNL     1      34.980  -3.675  15.919  0.00  0.00    +0.037 A 
ATOM     16  C   UNL     1      35.706  -2.865  15.042  0.00  0.00    +0.002 A 
BRANCH  14  17
ATOM     17  O   UNL     1      34.963  -5.238  17.831  0.00  0.00    -0.474 OA
BRANCH  17  18
ATOM     18  C   UNL     1      34.522  -4.850  19.134  0.00  0.00    +0.223 C 
BRANCH  18  19
ATOM     19  C   UNL     1      32.991  -4.779  19.194  0.00  0.00    +0.120 C 
BRANCH  19  20
ATOM     20  N   UNL     1      32.525  -3.387  19.397  0.00  0.00    -0.267 NA
ATOM     21  C   UNL     1      32.355  -2.679  18.113  0.00  0.00    +0.108 C 
ATOM     22  C   UNL     1      30.882  -2.751  17.716  0.00  0.00    +0.178 C 
ATOM     23  F   UNL     1      30.393  -1.482  17.448  0.00  0.00    -0.236 F 
ATOM     24  C   UNL     1      30.166  -3.353  18.911  0.00  0.00    +0.054 C 
ATOM     25  C   UNL     1      31.197  -3.350  20.024  0.00  0.00    +0.075 C 
ENDBRANCH  19  20
ENDBRANCH  18  19
ENDBRANCH  17  18
ENDBRANCH  14  17
ENDBRANCH   2  11
BRANCH   1  26
ATOM     26  C   UNL     1      37.728   0.195  15.717  0.00  0.00    -0.008 A 
ATOM     27  C   UNL     1      38.783  -0.111  16.601  0.00  0.00    -0.000 A 
ATOM     28  C   UNL     1      38.870   0.514  17.849  0.00  0.00    +0.036 A 
ATOM     29  C   UNL     1      37.918   1.468  18.229  0.00  0.00    +0.134 A 
ATOM     30  C   UNL     1      36.881   1.796  17.354  0.00  0.00    +0.036 A 
ATOM     31  C   UNL     1      36.788   1.170  16.108  0.00  0.00    -0.000 A 
BRANCH  29  32
ATOM     32  O   UNL     1      37.996   2.096  19.470  0.00  0.00    -0.506 OA
ATOM     33  H   UNL     1      38.737   1.881  20.127  0.00  0.00    +0.292 HD
ENDBRANCH  29  32
ENDBRANCH   1  26
BRANCH   7  34
ATOM     34  O   UNL     1      43.595   1.277  13.430  0.00  0.00    -0.505 OA
ATOM     35  H   UNL     1      43.460   2.241  13.148  0.00  0.00    +0.292 HD
ENDBRANCH   7  34
TORSDOF 8
ENDMDL
MODEL       10
REMARK  Name = CMP_0
REMARK  8 active torsions:
REMARK  status: ('A' for Active; 'I' for Inactive)
REMARK    1  A    between atoms: C_1  and  C_17
REMARK    2  A    between atoms: C_5  and  O_6
REMARK    3  A    between atoms: C_11  and  C_21
REMARK    4  A    between atoms: O_13  and  C_14
REMARK    5  A    between atoms: C_24  and  O_27
REMARK    6  A    between atoms: O_27  and  C_28
REMARK    7  A    between atoms: C_28  and  C_29
REMARK    8  A    between atoms: C_29  and  N_30
REMARK                            x       y       z     vdW  Elec       q    Type
REMARK                         _______ _______ _______ _____ _____    ______ ____
ROOT
ATOM      1  C   UNL     1      36.908  -4.708  19.228  0.00  0.00    +0.118 C 
ATOM      2  C   UNL     1      37.043  -3.594  20.295  0.00  0.00    +0.202 C 
ATOM      3  O   UNL     1      37.413  -2.324  19.748  0.00  0.00    -0.473 OA
ATOM      4  C   UNL     1      38.173  -2.125  18.588  0.00  0.00    +0.145 A 
ATOM      5  C   UNL     1      38.621  -3.196  17.792  0.00  0.00    +0.063 A 
ATOM      6  C   UNL     1      39.231  -2.937  16.558  0.00  0.00    +0.046 A 
ATOM      7  C   UNL     1      39.444  -1.618  16.135  0.00  0.00    +0.134 A 
ATOM      8  C   UNL     1      39.040  -0.556  16.949  0.00  0.00    +0.040 A 
ATOM      9  C   UNL     1      38.407  -0.809  18.168  0.00  0.00    +0.041 A 
ATOM     10  S   UNL     1      38.486  -4.901  18.338  0.00  0.00    -0.103 S 
ENDROOT
BRANCH   2  11
ATOM     11  C   UNL     1      35.789  -3.475  21.140  0.00  0.00    +0.019 A 
ATOM     12  C   UNL     1      35.670  -4.239  22.314  0.00  0.00    +0.002 A 
ATOM     13  C   UNL     1      34.512  -4.167  23.093  0.00  0.00    +0.037 A 
ATOM     14  C   UNL     1      33.457  -3.325  22.726  0.00  0.00    +0.139 A 
ATOM     15  C   UNL     1      33.561  -2.578  21.538  0.00  0.00    +0.037 A 
ATOM     16  C   UNL     1      34.716  -2.651  20.755  0.00  0.00    +0.002 A 
BRANCH  14  17
ATOM     17  O   UNL     1      32.326  -3.279  23.558  0.00  0.00    -0.474 OA
BRANCH  17  18
ATOM     18  C   UNL     1      31.960  -2.195  24.416  0.00  0.00    +0.223 C 
BRANCH  18  19
ATOM     19  C   UNL     1      33.032  -1.963  25.489  0.00  0.00    +0.120 C 
BRANCH  19  20
ATOM     20  N   UNL     1      32.570  -0.988  26.505  0.00  0.00    -0.267 NA
ATOM     21  C   UNL     1      33.434  -1.002  27.701  0.00  0.00    +0.108 C 
ATOM     22  C   UNL     1      34.451   0.131  27.573  0.00  0.00    +0.178 C 
ATOM     23  F   UNL     1      34.428   0.928  28.706  0.00  0.00    -0.236 F 
ATOM     24  C   UNL     1      34.023   0.928  26.355  0.00  0.00    +0.054 C 
ATOM     25  C   UNL     1      32.649   0.391  26.002  0.00  0.00    +0.075 C 
ENDBRANCH  19  20
ENDBRANCH  18  19
ENDBRANCH  17  18
ENDBRANCH  14  17
ENDBRANCH   2  11
BRANCH   1  26
ATOM     26  C   UNL     1      35.725  -4.638  18.269  0.00  0.00    -0.008 A 
ATOM     27  C   UNL     1      34.634  -5.530  18.320  0.00  0.00    -0.000 A 
ATOM     28  C   UNL     1      33.565  -5.398  17.428  0.00  0.00    +0.036 A 
ATOM     29  C   UNL     1      33.556  -4.364  16.484  0.00  0.00    +0.134 A 
ATOM     30  C   UNL     1      34.620  -3.460  16.438  0.00  0.00    +0.036 A 
ATOM     31  C   UNL     1      35.692  -3.592  17.324  0.00  0.00    -0.000 A 
BRANCH  29  32
ATOM     32  O   UNL     1      32.495  -4.223  15.591  0.00  0.00    -0.506 OA
ATOM     33  H   UNL     1      31.708  -4.862  15.600  0.00  0.00    +0.292 HD
ENDBRANCH  29  32
ENDBRANCH   1  26
BRANCH   7  34
ATOM     34  O   UNL     1      40.060  -1.353  14.914  0.00  0.00    -0.505 OA
ATOM     35  H   UNL     1      40.355  -2.100  14.297  0.00  0.00    +0.292 HD
ENDBRANCH   7  34
TORSDOF 8
ENDMDL
MODEL        2
REMARK  Name = CMP_0
REMARK  8 active torsions:
REMARK  status: ('A' for Active; 'I' for Inactive)
REMARK    1  A    between atoms: C_1  and  C_17
REMARK    2  A    between atoms: C_5  and  O_6
REMARK    3  A    between atoms: C_11  and  C_21
REMARK    4  A    between atoms: O_13  and  C_14
REMARK    5  A    between atoms: C_24  and  O_27
REMARK    6  A    between atoms: O_27  and  C_28
REMARK    7  A    between atoms: C_28  and  C_29
REMARK    8  A    between atoms: C_29  and  N_30
REMARK                            x       y       z     vdW  Elec       q    Type
REMARK                         _______ _______ _______ _____ _____    ______ ____
ROOT
ATOM      1  C   UNL     1      37.537  -1.579  17.454  0.00  0.00    +0.118 C 
ATOM      2  C   UNL     1      36.814  -0.898  18.649  0.00  0.00    +0.202 C 
ATOM      3  O   UNL     1      35.902   0.120  18.212  0.00  0.00    -0.473 OA
ATOM      4  C   UNL     1      36.006   0.865  17.030  0.00  0.00    +0.145 A 
ATOM      5  C   UNL     1      37.081   0.703  16.138  0.00  0.00    +0.063 A 
ATOM      6  C   UNL     1      37.068   1.361  14.902  0.00  0.00    +0.046 A 
ATOM      7  C   UNL     1      36.011   2.220  14.570  0.00  0.00    +0.134 A 
ATOM      8  C   UNL     1      34.965   2.414  15.477  0.00  0.00    +0.040 A 
ATOM      9  C   UNL     1      34.963   1.738  16.700  0.00  0.00    +0.041 A 
ATOM     10  S   UNL     1      38.498  -0.308  16.565  0.00  0.00    -0.103 S 
ENDROOT
BRANCH   2  11
ATOM     11  C   UNL     1      36.093  -1.842  19.607  0.00  0.00    +0.019 A 
ATOM     12  C   UNL     1      36.767  -2.766  20.433  0.00  0.00    +0.002 A 
ATOM     13  C   UNL     1      36.056  -3.589  21.310  0.00  0.00    +0.037 A 
ATOM     14  C   UNL     1      34.664  -3.503  21.401  0.00  0.00    +0.139 A 
ATOM     15  C   UNL     1      33.986  -2.562  20.608  0.00  0.00    +0.037 A 
ATOM     16  C   UNL     1      34.694  -1.738  19.730  0.00  0.00    +0.002 A 
BRANCH  14  17
ATOM     17  O   UNL     1      34.004  -4.361  22.297  0.00  0.00    -0.474 OA
BRANCH  17  18
ATOM     18  C   UNL     1      32.890  -4.008  23.117  0.00  0.00    +0.223 C 
BRANCH  18  19
ATOM     19  C   UNL     1      33.370  -3.277  24.389  0.00  0.00    +0.120 C 
BRANCH  19  20
ATOM     20  N   UNL     1      32.285  -2.685  25.207  0.00  0.00    -0.267 NA
ATOM     21  C   UNL     1      31.836  -1.367  24.728  0.00  0.00    +0.108 C 
ATOM     22  C   UNL     1      32.135  -0.335  25.812  0.00  0.00    +0.178 C 
ATOM     23  F   UNL     1      32.894   0.708  25.307  0.00  0.00    -0.236 F 
ATOM     24  C   UNL     1      32.897  -1.076  26.893  0.00  0.00    +0.054 C 
ATOM     25  C   UNL     1      32.618  -2.545  26.630  0.00  0.00    +0.075 C 
ENDBRANCH  19  20
ENDBRANCH  18  19
ENDBRANCH  17  18
ENDBRANCH  14  17
ENDBRANCH   2  11
BRANCH   1  26
ATOM     26  C   UNL     1      36.687  -2.393  16.484  0.00  0.00    -0.008 A 
ATOM     27  C   UNL     1      37.315  -2.938  15.348  0.00  0.00    -0.000 A 
ATOM     28  C   UNL     1      36.588  -3.686  14.418  0.00  0.00    +0.036 A 
ATOM     29  C   UNL     1      35.219  -3.904  14.607  0.00  0.00    +0.134 A 
ATOM     30  C   UNL     1      34.583  -3.372  15.730  0.00  0.00    +0.036 A 
ATOM     31  C   UNL     1      35.306  -2.623  16.663  0.00  0.00    -0.000 A 
BRANCH  29  32
ATOM     32  O   UNL     1      34.484  -4.648  13.687  0.00  0.00    -0.506 OA
ATOM     33  H   UNL     1      34.918  -5.050  12.863  0.00  0.00    +0.292 HD
ENDBRANCH  29  32
ENDBRANCH   1  26
BRANCH   7  34
ATOM     34  O   UNL     1      35.995   2.888  13.348  0.00  0.00    -0.505 OA
ATOM     35  H   UNL     1      36.740   2.772  12.671  0.00  0.00    +0.292 HD
ENDBRANCH   7  34
TORSDOF 8
ENDMDL
MODEL        3
REMARK  Name = CMP_0
REMARK  8 active torsions:
REMARK  status: ('A' for Active; 'I' for Inactive)
REMARK    1  A    between atoms: C_1  and  C_17
REMARK    2  A    between atoms: C_5  and  O_6
REMARK    3  A    between atoms: C_11  and  C_21
REMARK    4  A    between atoms: O_13  and  C_14
REMARK    5  A    between atoms: C_24  and  O_27
REMARK    6  A    between atoms: O_27  and  C_28
REMARK    7  A    between atoms: C_28  and  C_29
REMARK    8  A    between atoms: C_29  and  N_30
REMARK                            x       y       z     vdW  Elec       q    Type
REMARK                         _______ _______ _______ _____ _____    ______ ____
ROOT
ATOM      1  C   UNL     1      36.977  -0.690  14.644  0.00  0.00    +0.118 C 
ATOM      2  C   UNL     1      37.199  -2.227  14.580  0.00  0.00    +0.202 C 
ATOM      3  O   UNL     1      38.584  -2.574  14.718  0.00  0.00    -0.473 OA
ATOM      4  C   UNL     1      39.673  -1.764  14.368  0.00  0.00    +0.145 A 
ATOM      5  C   UNL     1      39.503  -0.493  13.790  0.00  0.00    +0.063 A 
ATOM      6  C   UNL     1      40.613   0.338  13.593  0.00  0.00    +0.046 A 
ATOM      7  C   UNL     1      41.899  -0.111  13.923  0.00  0.00    +0.134 A 
ATOM      8  C   UNL     1      42.070  -1.391  14.456  0.00  0.00    +0.040 A 
ATOM      9  C   UNL     1      40.962  -2.213  14.679  0.00  0.00    +0.041 A 
ATOM     10  S   UNL     1      37.888   0.078  13.263  0.00  0.00    -0.103 S 
ENDROOT
BRANCH   2  11
ATOM     11  C   UNL     1      36.373  -3.052  15.563  0.00  0.00    +0.019 A 
ATOM     12  C   UNL     1      34.962  -3.036  15.590  0.00  0.00    +0.002 A 
ATOM     13  C   UNL     1      34.258  -3.833  16.496  0.00  0.00    +0.037 A 
ATOM     14  C   UNL     1      34.933  -4.675  17.383  0.00  0.00    +0.139 A 
ATOM     15  C   UNL     1      36.337  -4.724  17.341  0.00  0.00    +0.037 A 
ATOM     16  C   UNL     1      37.044  -3.929  16.436  0.00  0.00    +0.002 A 
BRANCH  14  17
ATOM     17  O   UNL     1      34.170  -5.447  18.275  0.00  0.00    -0.474 OA
BRANCH  17  18
ATOM     18  C   UNL     1      33.709  -5.021  19.558  0.00  0.00    +0.223 C 
BRANCH  18  19
ATOM     19  C   UNL     1      34.880  -4.982  20.563  0.00  0.00    +0.120 C 
BRANCH  19  20
ATOM     20  N   UNL     1      35.170  -3.639  21.118  0.00  0.00    -0.267 NA
ATOM     21  C   UNL     1      34.504  -2.544  20.395  0.00  0.00    +0.108 C 
ATOM     22  C   UNL     1      35.579  -1.650  19.782  0.00  0.00    +0.178 C 
ATOM     23  F   UNL     1      35.384  -1.505  18.418  0.00  0.00    -0.236 F 
ATOM     24  C   UNL     1      36.901  -2.336  20.063  0.00  0.00    +0.054 C 
ATOM     25  C   UNL     1      36.601  -3.317  21.182  0.00  0.00    +0.075 C 
ENDBRANCH  19  20
ENDBRANCH  18  19
ENDBRANCH  17  18
ENDBRANCH  14  17
ENDBRANCH   2  11
BRANCH   1  26
ATOM     26  C   UNL     1      37.290   0.016  15.960  0.00  0.00    -0.008 A 
ATOM     27  C   UNL     1      36.589   1.198  16.261  0.00  0.00    -0.000 A 
ATOM     28  C   UNL     1      36.837   1.895  17.447  0.00  0.00    +0.036 A 
ATOM     29  C   UNL     1      37.791   1.421  18.354  0.00  0.00    +0.134 A 
ATOM     30  C   UNL     1      38.493   0.248  18.069  0.00  0.00    +0.036 A 
ATOM     31  C   UNL     1      38.248  -0.452  16.885  0.00  0.00    -0.000 A 
BRANCH  29  32
ATOM     32  O   UNL     1      38.047   2.107  19.539  0.00  0.00    -0.506 OA
ATOM     33  H   UNL     1      37.552   2.959  19.775  0.00  0.00    +0.292 HD
ENDBRANCH  29  32
ENDBRANCH   1  26
BRANCH   7  34
ATOM     34  O   UNL     1      43.010   0.704  13.720  0.00  0.00    -0.505 OA
ATOM     35  H   UNL     1      42.919   1.636  13.331  0.00  0.00    +0.292 HD
ENDBRANCH   7  34
TORSDOF 8
ENDMDL
MODEL        4
REMARK  Name = CMP_0
REMARK  8 active torsions:
REMARK  status: ('A' for Active; 'I' for Inactive)
REMARK    1  A    between atoms: C_1  and  C_17
REMARK    2  A    between atoms: C_5  and  O_6
REMARK    3  A    between atoms: C_11  and  C_21
REMARK    4  A    between atoms: O_13  and  C_14
REMARK    5  A    between atoms: C_24  and  O_27
REMARK    6  A    between atoms: O_27  and  C_28
REMARK    7  A    between atoms: C_28  and  C_29
REMARK    8  A    between atoms: C_29  and  N_30
REMARK                            x       y       z     vdW  Elec       q    Type
REMARK                         _______ _______ _______ _____ _____    ______ ____
ROOT
ATOM      1  C   UNL     1      38.039   0.005  17.599  0.00  0.00    +0.118 C 
ATOM      2  C   UNL     1      36.807   0.232  18.519  0.00  0.00    +0.202 C 
ATOM      3  O   UNL     1      35.727   0.864  17.818  0.00  0.00    -0.473 OA
ATOM      4  C   UNL     1      35.848   1.710  16.707  0.00  0.00    +0.145 A 
ATOM      5  C   UNL     1      37.100   2.063  16.172  0.00  0.00    +0.063 A 
ATOM      6  C   UNL     1      37.169   2.789  14.977  0.00  0.00    +0.046 A 
ATOM      7  C   UNL     1      35.995   3.209  14.337  0.00  0.00    +0.134 A 
ATOM      8  C   UNL     1      34.752   2.895  14.894  0.00  0.00    +0.040 A 
ATOM      9  C   UNL     1      34.680   2.147  16.073  0.00  0.00    +0.041 A 
ATOM     10  S   UNL     1      38.624   1.631  17.011  0.00  0.00    -0.103 S 
ENDROOT
BRANCH   2  11
ATOM     11  C   UNL     1      36.285  -1.009  19.237  0.00  0.00    +0.019 A 
ATOM     12  C   UNL     1      34.916  -1.349  19.293  0.00  0.00    +0.002 A 
ATOM     13  C   UNL     1      34.498  -2.513  19.943  0.00  0.00    +0.037 A 
ATOM     14  C   UNL     1      35.425  -3.374  20.535  0.00  0.00    +0.139 A 
ATOM     15  C   UNL     1      36.794  -3.062  20.454  0.00  0.00    +0.037 A 
ATOM     16  C   UNL     1      37.215  -1.899  19.805  0.00  0.00    +0.002 A 
BRANCH  14  17
ATOM     17  O   UNL     1      34.943  -4.526  21.180  0.00  0.00    -0.474 OA
BRANCH  17  18
ATOM     18  C   UNL     1      34.528  -5.728  20.531  0.00  0.00    +0.223 C 
BRANCH  18  19
ATOM     19  C   UNL     1      35.756  -6.543  20.072  0.00  0.00    +0.120 C 
BRANCH  19  20
ATOM     20  N   UNL     1      35.859  -6.728  18.605  0.00  0.00    -0.267 NA
ATOM     21  C   UNL     1      37.189  -6.407  18.061  0.00  0.00    +0.108 C 
ATOM     22  C   UNL     1      37.043  -5.228  17.102  0.00  0.00    +0.178 C 
ATOM     23  F   UNL     1      37.896  -4.195  17.454  0.00  0.00    -0.236 F 
ATOM     24  C   UNL     1      35.596  -4.786  17.205  0.00  0.00    +0.054 C 
ATOM     25  C   UNL     1      34.873  -5.960  17.836  0.00  0.00    +0.075 C 
ENDBRANCH  19  20
ENDBRANCH  18  19
ENDBRANCH  17  18
ENDBRANCH  14  17
ENDBRANCH   2  11
BRANCH   1  26
ATOM     26  C   UNL     1      37.882  -0.968  16.434  0.00  0.00    -0.008 A 
ATOM     27  C   UNL     1      39.049  -1.496  15.849  0.00  0.00    -0.000 A 
ATOM     28  C   UNL     1      38.971  -2.385  14.774  0.00  0.00    +0.036 A 
ATOM     29  C   UNL     1      37.725  -2.764  14.264  0.00  0.00    +0.134 A 
ATOM     30  C   UNL     1      36.559  -2.250  14.835  0.00  0.00    +0.036 A 
ATOM     31  C   UNL     1      36.632  -1.360  15.911  0.00  0.00    -0.000 A 
BRANCH  29  32
ATOM     32  O   UNL     1      37.635  -3.650  13.193  0.00  0.00    -0.506 OA
ATOM     33  H   UNL     1      38.462  -4.041  12.758  0.00  0.00    +0.292 HD
ENDBRANCH  29  32
ENDBRANCH   1  26
BRANCH   7  34
ATOM     34  O   UNL     1      36.053   3.942  13.154  0.00  0.00    -0.505 OA
ATOM     35  H   UNL     1      36.938   4.189  12.727  0.00  0.00    +0.292 HD
ENDBRANCH   7  34
TORSDOF 8
ENDMDL
MODEL        5
REMARK  Name = CMP_0
REMARK  8 active torsions:
REMARK  status: ('A' for Active; 'I' for Inactive)
REMARK    1  A    between atoms: C_1  and  C_17
REMARK    2  A    between atoms: C_5  and  O_6
REMARK    3  A    between atoms: C_11  and  C_21
REMARK    4  A    between atoms: O_13  and  C_14
REMARK    5  A    between atoms: C_24  and  O_27
REMARK    6  A    between atoms: O_27  and  C_28
REMARK    7  A    between atoms: C_28  and  C_29
REMARK    8  A    between atoms: C_29  and  N_30
REMARK                            x       y       z     vdW  Elec       q    Type
REMARK                         _______ _______ _______ _____ _____    ______ ____
ROOT
ATOM      1  C   UNL     1      37.247   0.693  17.932  0.00  0.00    +0.118 C 
ATOM      2  C   UNL     1      35.717   0.656  18.207  0.00  0.00    +0.202 C 
ATOM      3  O   UNL     1      34.980   1.388  17.218  0.00  0.00    -0.473 OA
ATOM      4  C   UNL     1      35.460   2.469  16.466  0.00  0.00    +0.145 A 
ATOM      5  C   UNL     1      36.757   2.983  16.642  0.00  0.00    +0.063 A 
ATOM      6  C   UNL     1      37.243   3.964  15.769  0.00  0.00    +0.046 A 
ATOM      7  C   UNL     1      36.425   4.472  14.751  0.00  0.00    +0.134 A 
ATOM      8  C   UNL     1      35.121   3.992  14.606  0.00  0.00    +0.040 A 
ATOM      9  C   UNL     1      34.642   2.993  15.459  0.00  0.00    +0.041 A 
ATOM     10  S   UNL     1      37.799   2.430  17.991  0.00  0.00    -0.103 S 
ENDROOT
BRANCH   2  11
ATOM     11  C   UNL     1      35.110  -0.735  18.361  0.00  0.00    +0.019 A 
ATOM     12  C   UNL     1      35.453  -1.615  19.410  0.00  0.00    +0.002 A 
ATOM     13  C   UNL     1      34.844  -2.868  19.516  0.00  0.00    +0.037 A 
ATOM     14  C   UNL     1      33.871  -3.271  18.597  0.00  0.00    +0.139 A 
ATOM     15  C   UNL     1      33.497  -2.387  17.569  0.00  0.00    +0.037 A 
ATOM     16  C   UNL     1      34.104  -1.134  17.461  0.00  0.00    +0.002 A 
BRANCH  14  17
ATOM     17  O   UNL     1      33.300  -4.545  18.752  0.00  0.00    -0.474 OA
BRANCH  17  18
ATOM     18  C   UNL     1      33.867  -5.771  18.291  0.00  0.00    +0.223 C 
BRANCH  18  19
ATOM     19  C   UNL     1      33.469  -6.028  16.822  0.00  0.00    +0.120 C 
BRANCH  19  20
ATOM     20  N   UNL     1      34.605  -6.036  15.869  0.00  0.00    -0.267 NA
ATOM     21  C   UNL     1      35.890  -5.656  16.477  0.00  0.00    +0.108 C 
ATOM     22  C   UNL     1      36.374  -4.370  15.812  0.00  0.00    +0.178 C 
ATOM     23  F   UNL     1      36.629  -3.390  16.757  0.00  0.00    -0.236 F 
ATOM     24  C   UNL     1      35.259  -3.938  14.881  0.00  0.00    +0.054 C 
ATOM     25  C   UNL     1      34.404  -5.178  14.694  0.00  0.00    +0.075 C 
ENDBRANCH  19  20
ENDBRANCH  18  19
ENDBRANCH  17  18
ENDBRANCH  14  17
ENDBRANCH   2  11
BRANCH   1  26
ATOM     26  C   UNL     1      37.755   0.005  16.668  0.00  0.00    -0.008 A 
ATOM     27  C   UNL     1      39.124  -0.310  16.590  0.00  0.00    -0.000 A 
ATOM     28  C   UNL     1      39.652  -0.932  15.455  0.00  0.00    +0.036 A 
ATOM     29  C   UNL     1      38.819  -1.252  14.378  0.00  0.00    +0.134 A 
ATOM     30  C   UNL     1      37.457  -0.949  14.443  0.00  0.00    +0.036 A 
ATOM     31  C   UNL     1      36.925  -0.326  15.576  0.00  0.00    -0.000 A 
BRANCH  29  32
ATOM     32  O   UNL     1      39.333  -1.874  13.242  0.00  0.00    -0.506 OA
ATOM     33  H   UNL     1      40.316  -2.109  13.166  0.00  0.00    +0.292 HD
ENDBRANCH  29  32
ENDBRANCH   1  26
BRANCH   7  34
ATOM     34  O   UNL     1      36.896   5.457  13.885  0.00  0.00    -0.505 OA
ATOM     35  H   UNL     1      37.835   5.829  13.967  0.00  0.00    +0.292 HD
ENDBRANCH   7  34
TORSDOF 8
ENDMDL
MODEL        6
REMARK  Name = CMP_0
REMARK  8 active torsions:
REMARK  status: ('A' for Active; 'I' for Inactive)
REMARK    1  A    between atoms: C_1  and  C_17
REMARK    2  A    between atoms: C_5  and  O_6
REMARK    3  A    between atoms: C_11  and  C_21
REMARK    4  A    between atoms: O_13  and  C_14
REMARK    5  A    between atoms: C_24  and  O_27
REMARK    6  A    between atoms: O_27  and  C_28
REMARK    7  A    between atoms: C_28  and  C_29
REMARK    8  A    between atoms: C_29  and  N_30
REMARK                            x       y       z     vdW  Elec       q    Type
REMARK                         _______ _______ _______ _____ _____    ______ ____
ROOT
ATOM      1  C   UNL     1      36.378  -2.408  20.238  0.00  0.00    +0.118 C 
ATOM      2  C   UNL     1      37.729  -2.171  19.508  0.00  0.00    +0.202 C 
ATOM      3  O   UNL     1      38.010  -3.205  18.554  0.00  0.00    -0.473 OA
ATOM      4  C   UNL     1      37.551  -4.528  18.615  0.00  0.00    +0.145 A 
ATOM      5  C   UNL     1      36.763  -4.995  19.683  0.00  0.00    +0.063 A 
ATOM      6  C   UNL     1      36.206  -6.279  19.628  0.00  0.00    +0.046 A 
ATOM      7  C   UNL     1      36.469  -7.118  18.538  0.00  0.00    +0.134 A 
ATOM      8  C   UNL     1      37.288  -6.667  17.499  0.00  0.00    +0.040 A 
ATOM      9  C   UNL     1      37.825  -5.377  17.537  0.00  0.00    +0.041 A 
ATOM     10  S   UNL     1      36.484  -3.990  21.140  0.00  0.00    -0.103 S 
ENDROOT
BRANCH   2  11
ATOM     11  C   UNL     1      37.883  -0.810  18.834  0.00  0.00    +0.019 A 
ATOM     12  C   UNL     1      37.406   0.390  19.403  0.00  0.00    +0.002 A 
ATOM     13  C   UNL     1      37.598   1.612  18.752  0.00  0.00    +0.037 A 
ATOM     14  C   UNL     1      38.280   1.675  17.534  0.00  0.00    +0.139 A 
ATOM     15  C   UNL     1      38.789   0.488  16.977  0.00  0.00    +0.037 A 
ATOM     16  C   UNL     1      38.599  -0.735  17.625  0.00  0.00    +0.002 A 
BRANCH  14  17
ATOM     17  O   UNL     1      38.436   2.931  16.925  0.00  0.00    -0.474 OA
BRANCH  17  18
ATOM     18  C   UNL     1      37.384   3.855  16.647  0.00  0.00    +0.223 C 
BRANCH  18  19
ATOM     19  C   UNL     1      37.114   3.920  15.129  0.00  0.00    +0.120 C 
BRANCH  19  20
ATOM     20  N   UNL     1      35.887   3.212  14.691  0.00  0.00    -0.267 NA
ATOM     21  C   UNL     1      34.853   3.122  15.734  0.00  0.00    +0.108 C 
ATOM     22  C   UNL     1      34.629   1.648  16.062  0.00  0.00    +0.178 C 
ATOM     23  F   UNL     1      34.785   1.414  17.419  0.00  0.00    -0.236 F 
ATOM     24  C   UNL     1      35.667   0.883  15.265  0.00  0.00    +0.054 C 
ATOM     25  C   UNL     1      36.129   1.852  14.193  0.00  0.00    +0.075 C 
ENDBRANCH  19  20
ENDBRANCH  18  19
ENDBRANCH  17  18
ENDBRANCH  14  17
ENDBRANCH   2  11
BRANCH   1  26
ATOM     26  C   UNL     1      35.102  -2.345  19.403  0.00  0.00    -0.008 A 
ATOM     27  C   UNL     1      33.914  -2.844  19.968  0.00  0.00    -0.000 A 
ATOM     28  C   UNL     1      32.715  -2.821  19.251  0.00  0.00    +0.036 A 
ATOM     29  C   UNL     1      32.682  -2.299  17.954  0.00  0.00    +0.134 A 
ATOM     30  C   UNL     1      33.852  -1.798  17.380  0.00  0.00    +0.036 A 
ATOM     31  C   UNL     1      35.054  -1.818  18.094  0.00  0.00    -0.000 A 
BRANCH  29  32
ATOM     32  O   UNL     1      31.493  -2.270  17.229  0.00  0.00    -0.506 OA
ATOM     33  H   UNL     1      30.627  -2.623  17.618  0.00  0.00    +0.292 HD
ENDBRANCH  29  32
ENDBRANCH   1  26
BRANCH   7  34
ATOM     34  O   UNL     1      35.929  -8.400  18.480  0.00  0.00    -0.505 OA
ATOM     35  H   UNL     1      35.335  -8.758  19.220  0.00  0.00    +0.292 HD
ENDBRANCH   7  34
TORSDOF 8
ENDMDL
MODEL        7
REMARK  Name = CMP_0
REMARK  8 active torsions:
REMARK  status: ('A' for Active; 'I' for Inactive)
REMARK    1  A    between atoms: C_1  and  C_17
REMARK    2  A    between atoms: C_5  and  O_6
REMARK    3  A    between atoms: C_11  and  C_21
REMARK    4  A    between atoms: O_13  and  C_14
REMARK    5  A    between atoms: C_24  and  O_27
REMARK    6  A    between atoms: O_27  and  C_28
REMARK    7  A    between atoms: C_28  and  C_29
REMARK    8  A    between atoms: C_29  and  N_30
REMARK                            x       y       z     vdW  Elec       q    Type
REMARK                         _______ _______ _______ _____ _____    ______ ____
ROOT
ATOM      1  C   UNL     1      37.460   0.495  18.458  0.00  0.00    +0.118 C 
ATOM      2  C   UNL     1      35.922   0.386  18.653  0.00  0.00    +0.202 C 
ATOM      3  O   UNL     1      35.202   1.031  17.593  0.00  0.00    -0.473 OA
ATOM      4  C   UNL     1      35.664   2.102  16.817  0.00  0.00    +0.145 A 
ATOM      5  C   UNL     1      36.921   2.695  17.037  0.00  0.00    +0.063 A 
ATOM      6  C   UNL     1      37.401   3.662  16.145  0.00  0.00    +0.046 A 
ATOM      7  C   UNL     1      36.615   4.078  15.063  0.00  0.00    +0.134 A 
ATOM      8  C   UNL     1      35.348   3.520  14.872  0.00  0.00    +0.040 A 
ATOM      9  C   UNL     1      34.876   2.535  15.744  0.00  0.00    +0.041 A 
ATOM     10  S   UNL     1      37.914   2.262  18.464  0.00  0.00    -0.103 S 
ENDROOT
BRANCH   2  11
ATOM     11  C   UNL     1      35.381  -1.029  18.841  0.00  0.00    +0.019 A 
ATOM     12  C   UNL     1      34.319  -1.557  18.076  0.00  0.00    +0.002 A 
ATOM     13  C   UNL     1      33.883  -2.869  18.274  0.00  0.00    +0.037 A 
ATOM     14  C   UNL     1      34.500  -3.693  19.219  0.00  0.00    +0.139 A 
ATOM     15  C   UNL     1      35.582  -3.188  19.961  0.00  0.00    +0.037 A 
ATOM     16  C   UNL     1      36.020  -1.876  19.766  0.00  0.00    +0.002 A 
BRANCH  14  17
ATOM     17  O   UNL     1      34.013  -5.002  19.377  0.00  0.00    -0.474 OA
BRANCH  17  18
ATOM     18  C   UNL     1      33.886  -5.972  18.337  0.00  0.00    +0.223 C 
BRANCH  18  19
ATOM     19  C   UNL     1      35.204  -6.078  17.539  0.00  0.00    +0.120 C 
BRANCH  19  20
ATOM     20  N   UNL     1      35.034  -6.095  16.067  0.00  0.00    -0.267 NA
ATOM     21  C   UNL     1      35.748  -5.008  15.377  0.00  0.00    +0.108 C 
ATOM     22  C   UNL     1      34.717  -4.116  14.690  0.00  0.00    +0.178 C 
ATOM     23  F   UNL     1      34.869  -2.795  15.078  0.00  0.00    -0.236 F 
ATOM     24  C   UNL     1      33.361  -4.646  15.112  0.00  0.00    +0.054 C 
ATOM     25  C   UNL     1      33.633  -6.047  15.628  0.00  0.00    +0.075 C 
ENDBRANCH  19  20
ENDBRANCH  18  19
ENDBRANCH  17  18
ENDBRANCH  14  17
ENDBRANCH   2  11
BRANCH   1  26
ATOM     26  C   UNL     1      38.073  -0.218  17.257  0.00  0.00    -0.008 A 
ATOM     27  C   UNL     1      39.412   0.065  16.931  0.00  0.00    -0.000 A 
ATOM     28  C   UNL     1      40.028  -0.550  15.837  0.00  0.00    +0.036 A 
ATOM     29  C   UNL     1      39.315  -1.461  15.050  0.00  0.00    +0.134 A 
ATOM     30  C   UNL     1      37.986  -1.753  15.363  0.00  0.00    +0.036 A 
ATOM     31  C   UNL     1      37.366  -1.141  16.456  0.00  0.00    -0.000 A 
BRANCH  29  32
ATOM     32  O   UNL     1      39.918  -2.081  13.958  0.00  0.00    -0.506 OA
ATOM     33  H   UNL     1      40.881  -1.891  13.707  0.00  0.00    +0.292 HD
ENDBRANCH  29  32
ENDBRANCH   1  26
BRANCH   7  34
ATOM     34  O   UNL     1      37.080   5.048  14.178  0.00  0.00    -0.505 OA
ATOM     35  H   UNL     1      37.992   5.476  14.291  0.00  0.00    +0.292 HD
ENDBRANCH   7  34
TORSDOF 8
ENDMDL
MODEL        8
REMARK  Name = CMP_0
REMARK  8 active torsions:
REMARK  status: ('A' for Active; 'I' for Inactive)
REMARK    1  A    between atoms: C_1  and  C_17
REMARK    2  A    between atoms: C_5  and  O_6
REMARK    3  A    between atoms: C_11  and  C_21
REMARK    4  A    between atoms: O_13  and  C_14
REMARK    5  A    between atoms: C_24  and  O_27
REMARK    6  A    between atoms: O_27  and  C_28
REMARK    7  A    between atoms: C_28  and  C_29
REMARK    8  A    between atoms: C_29  and  N_30
REMARK                            x       y       z     vdW  Elec       q    Type
REMARK                         _______ _______ _______ _____ _____    ______ ____
ROOT
ATOM      1  C   UNL     1      33.300  -2.936  18.164  0.00  0.00    +0.118 C 
ATOM      2  C   UNL     1      33.641  -4.237  18.944  0.00  0.00    +0.202 C 
ATOM      3  O   UNL     1      34.853  -4.840  18.472  0.00  0.00    -0.473 OA
ATOM      4  C   UNL     1      35.382  -4.724  17.179  0.00  0.00    +0.145 A 
ATOM      5  C   UNL     1      34.725  -4.000  16.167  0.00  0.00    +0.063 A 
ATOM      6  C   UNL     1      35.360  -3.788  14.937  0.00  0.00    +0.046 A 
ATOM      7  C   UNL     1      36.626  -4.336  14.692  0.00  0.00    +0.134 A 
ATOM      8  C   UNL     1      37.258  -5.092  15.683  0.00  0.00    +0.040 A 
ATOM      9  C   UNL     1      36.639  -5.283  16.921  0.00  0.00    +0.041 A 
ATOM     10  S   UNL     1      33.066  -3.367  16.406  0.00  0.00    -0.103 S 
ENDROOT
BRANCH   2  11
ATOM     11  C   UNL     1      33.707  -4.095  20.462  0.00  0.00    +0.019 A 
ATOM     12  C   UNL     1      34.859  -4.403  21.216  0.00  0.00    +0.002 A 
ATOM     13  C   UNL     1      34.870  -4.228  22.603  0.00  0.00    +0.037 A 
ATOM     14  C   UNL     1      33.749  -3.728  23.270  0.00  0.00    +0.139 A 
ATOM     15  C   UNL     1      32.608  -3.386  22.523  0.00  0.00    +0.037 A 
ATOM     16  C   UNL     1      32.594  -3.559  21.137  0.00  0.00    +0.002 A 
BRANCH  14  17
ATOM     17  O   UNL     1      33.819  -3.581  24.665  0.00  0.00    -0.474 OA
BRANCH  17  18
ATOM     18  C   UNL     1      32.779  -3.068  25.499  0.00  0.00    +0.223 C 
BRANCH  18  19
ATOM     19  C   UNL     1      33.002  -1.565  25.771  0.00  0.00    +0.120 C 
BRANCH  19  20
ATOM     20  N   UNL     1      32.337  -1.054  26.993  0.00  0.00    -0.267 NA
ATOM     21  C   UNL     1      31.762   0.291  26.835  0.00  0.00    +0.108 C 
ATOM     22  C   UNL     1      32.483   1.237  27.792  0.00  0.00    +0.178 C 
ATOM     23  F   UNL     1      33.003   2.327  27.114  0.00  0.00    -0.236 F 
ATOM     24  C   UNL     1      33.594   0.421  28.425  0.00  0.00    +0.054 C 
ATOM     25  C   UNL     1      33.206  -1.024  28.177  0.00  0.00    +0.075 C 
ENDBRANCH  19  20
ENDBRANCH  18  19
ENDBRANCH  17  18
ENDBRANCH  14  17
ENDBRANCH   2  11
BRANCH   1  26
ATOM     26  C   UNL     1      34.252  -1.753  18.310  0.00  0.00    -0.008 A 
ATOM     27  C   UNL     1      34.289  -0.800  17.275  0.00  0.00    -0.000 A 
ATOM     28  C   UNL     1      35.146   0.301  17.346  0.00  0.00    +0.036 A 
ATOM     29  C   UNL     1      35.982   0.471  18.456  0.00  0.00    +0.134 A 
ATOM     30  C   UNL     1      35.954  -0.465  19.492  0.00  0.00    +0.036 A 
ATOM     31  C   UNL     1      35.098  -1.569  19.425  0.00  0.00    -0.000 A 
BRANCH  29  32
ATOM     32  O   UNL     1      36.840   1.565  18.539  0.00  0.00    -0.506 OA
ATOM     33  H   UNL     1      36.881   2.262  17.805  0.00  0.00    +0.292 HD
ENDBRANCH  29  32
ENDBRANCH   1  26
BRANCH   7  34
ATOM     34  O   UNL     1      37.261  -4.140  13.467  0.00  0.00    -0.505 OA
ATOM     35  H   UNL     1      36.827  -3.600  12.727  0.00  0.00    +0.292 HD
ENDBRANCH   7  34
TORSDOF 8
ENDMDL
MODEL        9
REMARK  Name = CMP_0
REMARK  8 active torsions:
REMARK  status: ('A' for Active; 'I' for Inactive)
REMARK    1  A    between atoms: C_1  and  C_17
REMARK    2  A    between atoms: C_5  and  O_6
REMARK    3  A    between atoms: C_11  and  C_21
REMARK    4  A    between atoms: O_13  and  C_14
REMARK    5  A    between atoms: C_24  and  O_27
REMARK    6  A    between atoms: O_27  and  C_28
REMARK    7  A    between atoms: C_28  and  C_29
REMARK    8  A    between atoms: C_29  and  N_30
REMARK                            x       y       z     vdW  Elec       q    Type
REMARK                         _______ _______ _______ _____ _____    ______ ____
ROOT
ATOM      1  C   UNL     1      34.811  -2.243  19.071  0.00  0.00    +0.118 C 
ATOM      2  C   UNL     1      36.157  -1.662  19.588  0.00  0.00    +0.202 C 
ATOM      3  O   UNL     1      37.158  -2.680  19.732  0.00  0.00    -0.473 OA
ATOM      4  C   UNL     1      36.921  -4.038  19.981  0.00  0.00    +0.145 A 
ATOM      5  C   UNL     1      35.622  -4.549  20.156  0.00  0.00    +0.063 A 
ATOM      6  C   UNL     1      35.423  -5.931  20.256  0.00  0.00    +0.046 A 
ATOM      7  C   UNL     1      36.518  -6.806  20.233  0.00  0.00    +0.134 A 
ATOM      8  C   UNL     1      37.812  -6.293  20.104  0.00  0.00    +0.040 A 
ATOM      9  C   UNL     1      38.011  -4.915  19.976  0.00  0.00    +0.041 A 
ATOM     10  S   UNL     1      34.206  -3.458  20.290  0.00  0.00    -0.103 S 
ENDROOT
BRANCH   2  11
ATOM     11  C   UNL     1      36.729  -0.505  18.774  0.00  0.00    +0.019 A 
ATOM     12  C   UNL     1      35.937   0.548  18.267  0.00  0.00    +0.002 A 
ATOM     13  C   UNL     1      36.520   1.596  17.550  0.00  0.00    +0.037 A 
ATOM     14  C   UNL     1      37.900   1.635  17.334  0.00  0.00    +0.139 A 
ATOM     15  C   UNL     1      38.702   0.609  17.865  0.00  0.00    +0.037 A 
ATOM     16  C   UNL     1      38.122  -0.441  18.582  0.00  0.00    +0.002 A 
BRANCH  14  17
ATOM     17  O   UNL     1      38.426   2.711  16.601  0.00  0.00    -0.474 OA
BRANCH  17  18
ATOM     18  C   UNL     1      38.290   2.901  15.192  0.00  0.00    +0.223 C 
BRANCH  18  19
ATOM     19  C   UNL     1      39.409   2.151  14.438  0.00  0.00    +0.120 C 
BRANCH  19  20
ATOM     20  N   UNL     1      38.931   1.066  13.549  0.00  0.00    -0.267 NA
ATOM     21  C   UNL     1      37.465   0.990  13.443  0.00  0.00    +0.108 C 
ATOM     22  C   UNL     1      37.011  -0.353  14.008  0.00  0.00    +0.178 C 
ATOM     23  F   UNL     1      36.061  -0.178  15.000  0.00  0.00    -0.236 F 
ATOM     24  C   UNL     1      38.257  -1.010  14.570  0.00  0.00    +0.054 C 
ATOM     25  C   UNL     1      39.413  -0.269  13.925  0.00  0.00    +0.075 C 
ENDBRANCH  19  20
ENDBRANCH  18  19
ENDBRANCH  17  18
ENDBRANCH  14  17
ENDBRANCH   2  11
BRANCH   1  26
ATOM     26  C   UNL     1      34.788  -2.830  17.663  0.00  0.00    -0.008 A 
ATOM     27  C   UNL     1      33.557  -3.282  17.153  0.00  0.00    -0.000 A 
ATOM     28  C   UNL     1      33.472  -3.838  15.874  0.00  0.00    +0.036 A 
ATOM     29  C   UNL     1      34.618  -3.950  15.079  0.00  0.00    +0.134 A 
ATOM     30  C   UNL     1      35.846  -3.503  15.571  0.00  0.00    +0.036 A 
ATOM     31  C   UNL     1      35.936  -2.947  16.850  0.00  0.00    -0.000 A 
BRANCH  29  32
ATOM     32  O   UNL     1      34.546  -4.501  13.802  0.00  0.00    -0.506 OA
ATOM     33  H   UNL     1      33.669  -4.832  13.416  0.00  0.00    +0.292 HD
ENDBRANCH  29  32
ENDBRANCH   1  26
BRANCH   7  34
ATOM     34  O   UNL     1      36.331  -8.182  20.343  0.00  0.00    -0.505 OA
ATOM     35  H   UNL     1      35.407  -8.584  20.443  0.00  0.00    +0.292 HD
ENDBRANCH   7  34
TORSDOF 8
ENDMDL
MODEL       10
REMARK  Name = CMP_0
REMARK  8 active torsions:
REMARK  status: ('A' for Active; 'I' for Inactive)
REMARK    1  A    between atoms: C_1  and  C_17
REMARK    2  A    between atoms: C_5  and  O_6
REMARK    3  A    between atoms: C_11  and  C_21
REMARK    4  A    between atoms: O_13  and  C_14
REMARK    5  A    between atoms: C_24  and  O_27
REMARK    6  A    between atoms: O_27  and  C_28
REMARK    7  A    between atoms: C_28  and  C_29
REMARK    8  A    between atoms: C_29  and  N_30
REMARK                            x       y       z     vdW  Elec       q    Type
REMARK                         _______ _______ _______ _____ _____    ______ ____
ROOT
ATOM      1  C   UNL     1      35.925  -1.942  19.692  0.00  0.00    +0.118 C 
ATOM      2  C   UNL     1      36.759  -1.680  18.407  0.00  0.00    +0.202 C 
ATOM      3  O   UNL     1      37.000  -2.888  17.672  0.00  0.00    -0.473 OA
ATOM      4  C   UNL     1      37.060  -4.181  18.209  0.00  0.00    +0.145 A 
ATOM      5  C   UNL     1      36.917  -4.423  19.587  0.00  0.00    +0.063 A 
ATOM      6  C   UNL     1      36.836  -5.739  20.060  0.00  0.00    +0.046 A 
ATOM      7  C   UNL     1      36.948  -6.816  19.171  0.00  0.00    +0.134 A 
ATOM      8  C   UNL     1      37.135  -6.574  17.808  0.00  0.00    +0.040 A 
ATOM      9  C   UNL     1      37.188  -5.262  17.329  0.00  0.00    +0.041 A 
ATOM     10  S   UNL     1      36.869  -3.075  20.767  0.00  0.00    -0.103 S 
ENDROOT
BRANCH   2  11
ATOM     11  C   UNL     1      36.197  -0.620  17.463  0.00  0.00    +0.019 A 
ATOM     12  C   UNL     1      35.523   0.535  17.914  0.00  0.00    +0.002 A 
ATOM     13  C   UNL     1      35.052   1.486  17.005  0.00  0.00    +0.037 A 
ATOM     14  C   UNL     1      35.253   1.323  15.632  0.00  0.00    +0.139 A 
ATOM     15  C   UNL     1      35.953   0.192  15.175  0.00  0.00    +0.037 A 
ATOM     16  C   UNL     1      36.425  -0.760  16.082  0.00  0.00    +0.002 A 
BRANCH  14  17
ATOM     17  O   UNL     1      34.751   2.309  14.767  0.00  0.00    -0.474 OA
BRANCH  17  18
ATOM     18  C   UNL     1      35.310   3.608  14.575  0.00  0.00    +0.223 C 
BRANCH  18  19
ATOM     19  C   UNL     1      36.639   3.511  13.795  0.00  0.00    +0.120 C 
BRANCH  19  20
ATOM     20  N   UNL     1      37.825   4.007  14.533  0.00  0.00    -0.267 NA
ATOM     21  C   UNL     1      38.753   2.941  14.945  0.00  0.00    +0.108 C 
ATOM     22  C   UNL     1      38.804   2.912  16.470  0.00  0.00    +0.178 C 
ATOM     23  F   UNL     1      38.511   1.647  16.952  0.00  0.00    -0.236 F 
ATOM     24  C   UNL     1      37.770   3.916  16.940  0.00  0.00    +0.054 C 
ATOM     25  C   UNL     1      37.497   4.791  15.730  0.00  0.00    +0.075 C 
ENDBRANCH  19  20
ENDBRANCH  18  19
ENDBRANCH  17  18
ENDBRANCH  14  17
ENDBRANCH   2  11
BRANCH   1  26
ATOM     26  C   UNL     1      34.490  -2.430  19.518  0.00  0.00    -0.008 A 
ATOM     27  C   UNL     1      33.798  -2.876  20.660  0.00  0.00    -0.000 A 
ATOM     28  C   UNL     1      32.485  -3.342  20.564  0.00  0.00    +0.036 A 
ATOM     29  C   UNL     1      31.838  -3.372  19.324  0.00  0.00    +0.134 A 
ATOM     30  C   UNL     1      32.511  -2.931  18.183  0.00  0.00    +0.036 A 
ATOM     31  C   UNL     1      33.825  -2.463  18.274  0.00  0.00    -0.000 A 
BRANCH  29  32
ATOM     32  O   UNL     1      30.529  -3.835  19.216  0.00  0.00    -0.506 OA
ATOM     33  H   UNL     1      30.013  -4.159  20.026  0.00  0.00    +0.292 HD
ENDBRANCH  29  32
ENDBRANCH   1  26
BRANCH   7  34
ATOM     34  O   UNL     1      36.881  -8.129  19.634  0.00  0.00    -0.505 OA
ATOM     35  H   UNL     1      36.751  -8.338  20.617  0.00  0.00    +0.292 HD
ENDBRANCH   7  34
TORSDOF 8
ENDMDL
MODEL        2
REMARK  Name = CMP_1
REMARK  8 active torsions:
REMARK  status: ('A' for Active; 'I' for Inactive)
REMARK    1  A    between atoms: C_1  and  C_17
REMARK    2  A    between atoms: C_5  and  O_6
REMARK    3  A    between atoms: C_11  and  C_21
REMARK    4  A    between atoms: O_13  and  C_14
REMARK    5  A    between atoms: C_24  and  O_27
REMARK    6  A    between atoms: O_27  and  C_28
REMARK    7  A    between atoms: C_28  and  C_29
REMARK    8  A    between atoms: C_29  and  N_30
REMARK                            x       y       z     vdW  Elec       q    Type
REMARK                         _______ _______ _______ _____ _____    ______ ____
ROOT
ATOM      1  C   UNL     1      36.255  -3.298  17.900  0.00  0.00    +0.118 C 
ATOM      2  C   UNL     1      36.127  -2.157  18.926  0.00  0.00    +0.202 C 
ATOM      3  O   UNL     1      35.416  -1.047  18.389  0.00  0.00    -0.473 OA
ATOM      4  C   UNL     1      35.678  -0.481  17.139  0.00  0.00    +0.145 A 
ATOM      5  C   UNL     1      36.459  -1.140  16.165  0.00  0.00    +0.063 A 
ATOM      6  C   UNL     1      36.624  -0.552  14.902  0.00  0.00    +0.046 A 
ATOM      7  C   UNL     1      36.039   0.688  14.612  0.00  0.00    +0.134 A 
ATOM      8  C   UNL     1      35.274   1.338  15.583  0.00  0.00    +0.040 A 
ATOM      9  C   UNL     1      35.093   0.754  16.838  0.00  0.00    +0.041 A 
ATOM     10  S   UNL     1      37.224  -2.752  16.445  0.00  0.00    -0.103 S 
ENDROOT
BRANCH   2  11
ATOM     11  C   UNL     1      35.473  -2.630  20.206  0.00  0.00    +0.019 A 
ATOM     12  C   UNL     1      36.194  -3.432  21.105  0.00  0.00    +0.002 A 
ATOM     13  C   UNL     1      35.586  -3.923  22.264  0.00  0.00    +0.037 A 
ATOM     14  C   UNL     1      34.240  -3.618  22.544  0.00  0.00    +0.139 A 
ATOM     15  C   UNL     1      33.518  -2.833  21.640  0.00  0.00    +0.037 A 
ATOM     16  C   UNL     1      34.122  -2.347  20.477  0.00  0.00    +0.002 A 
BRANCH  14  17
ATOM     17  O   UNL     1      33.580  -4.076  23.697  0.00  0.00    -0.474 OA
BRANCH  17  18
ATOM     18  C   UNL     1      32.495  -3.415  24.348  0.00  0.00    +0.223 C 
BRANCH  18  19
ATOM     19  C   UNL     1      32.796  -3.236  25.851  0.00  0.00    +0.120 C 
BRANCH  19  20
ATOM     20  N   UNL     1      33.124  -1.848  26.247  0.00  0.00    -0.270 NA
ATOM     21  C   UNL     1      32.312  -0.827  25.561  0.00  0.00    +0.072 C 
ATOM     22  C   UNL     1      32.971   0.558  25.702  0.00  0.00    +0.017 C 
ATOM     23  C   UNL     1      33.828   0.677  26.976  0.00  0.00    +0.003 C 
ATOM     24  C   UNL     1      33.249  -0.168  28.113  0.00  0.00    +0.017 C 
ATOM     25  C   UNL     1      33.155  -1.658  27.716  0.00  0.00    +0.072 C 
ENDBRANCH  19  20
ENDBRANCH  18  19
ENDBRANCH  17  18
ENDBRANCH  14  17
ENDBRANCH   2  11
BRANCH   1  26
ATOM     26  C   UNL     1      34.935  -3.970  17.543  0.00  0.00    -0.008 A 
ATOM     27  C   UNL     1      34.711  -5.295  17.966  0.00  0.00    -0.000 A 
ATOM     28  C   UNL     1      33.495  -5.932  17.707  0.00  0.00    +0.036 A 
ATOM     29  C   UNL     1      32.479  -5.255  17.023  0.00  0.00    +0.134 A 
ATOM     30  C   UNL     1      32.685  -3.939  16.602  0.00  0.00    +0.036 A 
ATOM     31  C   UNL     1      33.900  -3.297  16.863  0.00  0.00    -0.000 A 
BRANCH  29  32
ATOM     32  O   UNL     1      31.262  -5.880  16.758  0.00  0.00    -0.506 OA
ATOM     33  H   UNL     1      31.082  -6.834  17.050  0.00  0.00    +0.292 HD
ENDBRANCH  29  32
ENDBRANCH   1  26
BRANCH   7  34
ATOM     34  O   UNL     1      36.212   1.280  13.362  0.00  0.00    -0.505 OA
ATOM     35  H   UNL     1      36.779   0.844  12.643  0.00  0.00    +0.292 HD
ENDBRANCH   7  34
TORSDOF 8
ENDMDL
MODEL        3
REMARK  Name = CMP_1
REMARK  8 active torsions:
REMARK  status: ('A' for Active; 'I' for Inactive)
REMARK    1  A    between atoms: C_1  and  C_17
REMARK    2  A    between atoms: C_5  and  O_6
REMARK    3  A    between atoms: C_11  and  C_21
REMARK    4  A    between atoms: O_13  and  C_14
REMARK    5  A    between atoms: C_24  and  O_27
REMARK    6  A    between atoms: O_27  and  C_28
REMARK    7  A    between atoms: C_28  and  C_29
REMARK    8  A    between atoms: C_29  and  N_30
REMARK                            x       y       z     vdW  Elec       q    Type
REMARK                         _______ _______ _______ _____ _____    ______ ____
ROOT
ATOM      1  C   UNL     1      37.687  -1.111  17.175  0.00  0.00    +0.118 C 
ATOM      2  C   UNL     1      36.830  -0.398  18.238  0.00  0.00    +0.202 C 
ATOM      3  O   UNL     1      35.755   0.323  17.645  0.00  0.00    -0.473 OA
ATOM      4  C   UNL     1      35.897   1.182  16.553  0.00  0.00    +0.145 A 
ATOM      5  C   UNL     1      37.054   1.183  15.743  0.00  0.00    +0.063 A 
ATOM      6  C   UNL     1      37.105   2.016  14.617  0.00  0.00    +0.046 A 
ATOM      7  C   UNL     1      36.030   2.859  14.305  0.00  0.00    +0.134 A 
ATOM      8  C   UNL     1      34.892   2.859  15.115  0.00  0.00    +0.040 A 
ATOM      9  C   UNL     1      34.826   2.023  16.230  0.00  0.00    +0.041 A 
ATOM     10  S   UNL     1      38.471   0.108  16.055  0.00  0.00    -0.103 S 
ENDROOT
BRANCH   2  11
ATOM     11  C   UNL     1      36.303  -1.369  19.272  0.00  0.00    +0.019 A 
ATOM     12  C   UNL     1      37.199  -2.170  19.998  0.00  0.00    +0.002 A 
ATOM     13  C   UNL     1      36.725  -3.112  20.916  0.00  0.00    +0.037 A 
ATOM     14  C   UNL     1      35.341  -3.268  21.125  0.00  0.00    +0.139 A 
ATOM     15  C   UNL     1      34.450  -2.482  20.388  0.00  0.00    +0.037 A 
ATOM     16  C   UNL     1      34.921  -1.545  19.465  0.00  0.00    +0.002 A 
BRANCH  14  17
ATOM     17  O   UNL     1      34.809  -4.192  22.039  0.00  0.00    -0.474 OA
BRANCH  17  18
ATOM     18  C   UNL     1      33.530  -4.093  22.666  0.00  0.00    +0.223 C 
BRANCH  18  19
ATOM     19  C   UNL     1      33.677  -3.580  24.115  0.00  0.00    +0.120 C 
BRANCH  19  20
ATOM     20  N   UNL     1      32.483  -2.881  24.639  0.00  0.00    -0.270 NA
ATOM     21  C   UNL     1      32.670  -2.317  25.988  0.00  0.00    +0.072 C 
ATOM     22  C   UNL     1      31.304  -1.982  26.617  0.00  0.00    +0.017 C 
ATOM     23  C   UNL     1      30.229  -1.668  25.562  0.00  0.00    +0.003 C 
ATOM     24  C   UNL     1      30.843  -1.000  24.328  0.00  0.00    +0.017 C 
ATOM     25  C   UNL     1      31.924  -1.896  23.683  0.00  0.00    +0.072 C 
ENDBRANCH  19  20
ENDBRANCH  18  19
ENDBRANCH  17  18
ENDBRANCH  14  17
ENDBRANCH   2  11
BRANCH   1  26
ATOM     26  C   UNL     1      36.971  -2.242  16.449  0.00  0.00    -0.008 A 
ATOM     27  C   UNL     1      37.483  -3.550  16.557  0.00  0.00    -0.000 A 
ATOM     28  C   UNL     1      36.829  -4.626  15.951  0.00  0.00    +0.036 A 
ATOM     29  C   UNL     1      35.650  -4.415  15.228  0.00  0.00    +0.134 A 
ATOM     30  C   UNL     1      35.128  -3.124  15.118  0.00  0.00    +0.036 A 
ATOM     31  C   UNL     1      35.777  -2.045  15.725  0.00  0.00    -0.000 A 
BRANCH  29  32
ATOM     32  O   UNL     1      34.989  -5.479  14.620  0.00  0.00    -0.506 OA
ATOM     33  H   UNL     1      35.342  -6.427  14.681  0.00  0.00    +0.292 HD
ENDBRANCH  29  32
ENDBRANCH   1  26
BRANCH   7  34
ATOM     34  O   UNL     1      36.084   3.698  13.194  0.00  0.00    -0.505 OA
ATOM     35  H   UNL     1      36.903   3.737  12.598  0.00  0.00    +0.292 HD
ENDBRANCH   7  34
TORSDOF 8
ENDMDL
MODEL        4
REMARK  Name = CMP_1
REMARK  8 active torsions:
REMARK  status: ('A' for Active; 'I' for Inactive)
REMARK    1  A    between atoms: C_1  and  C_17
REMARK    2  A    between atoms: C_5  and  O_6
REMARK    3  A    between atoms: C_11  and  C_21
REMARK    4  A    between atoms: O_13  and  C_14
REMARK    5  A    between atoms: C_24  and  O_27
REMARK    6  A    between atoms: O_27  and  C_28
REMARK    7  A    between atoms: C_28  and  C_29
REMARK    8  A    between atoms: C_29  and  N_30
REMARK                            x       y       z     vdW  Elec       q    Type
REMARK                         _______ _______ _______ _____ _____    ______ ____
ROOT
ATOM      1  C   UNL     1      38.589  -1.245  17.320  0.00  0.00    +0.118 C 
ATOM      2  C   UNL     1      37.899  -0.448  18.443  0.00  0.00    +0.202 C 
ATOM      3  O   UNL     1      37.120   0.624  17.922  0.00  0.00    -0.473 OA
ATOM      4  C   UNL     1      37.580   1.530  16.964  0.00  0.00    +0.145 A 
ATOM      5  C   UNL     1      38.743   1.292  16.201  0.00  0.00    +0.063 A 
ATOM      6  C   UNL     1      39.111   2.207  15.203  0.00  0.00    +0.046 A 
ATOM      7  C   UNL     1      38.348   3.359  14.976  0.00  0.00    +0.134 A 
ATOM      8  C   UNL     1      37.203   3.593  15.741  0.00  0.00    +0.040 A 
ATOM      9  C   UNL     1      36.820   2.682  16.727  0.00  0.00    +0.041 A 
ATOM     10  S   UNL     1      39.768  -0.181  16.406  0.00  0.00    -0.103 S 
ENDROOT
BRANCH   2  11
ATOM     11  C   UNL     1      37.043  -1.342  19.315  0.00  0.00    +0.019 A 
ATOM     12  C   UNL     1      37.631  -2.414  20.005  0.00  0.00    +0.002 A 
ATOM     13  C   UNL     1      36.846  -3.282  20.769  0.00  0.00    +0.037 A 
ATOM     14  C   UNL     1      35.454  -3.092  20.856  0.00  0.00    +0.139 A 
ATOM     15  C   UNL     1      34.867  -2.034  20.154  0.00  0.00    +0.037 A 
ATOM     16  C   UNL     1      35.649  -1.170  19.384  0.00  0.00    +0.002 A 
BRANCH  14  17
ATOM     17  O   UNL     1      34.617  -3.927  21.615  0.00  0.00    -0.474 OA
BRANCH  17  18
ATOM     18  C   UNL     1      33.539  -4.708  21.099  0.00  0.00    +0.223 C 
BRANCH  18  19
ATOM     19  C   UNL     1      32.201  -3.956  21.266  0.00  0.00    +0.120 C 
BRANCH  19  20
ATOM     20  N   UNL     1      31.675  -3.361  20.018  0.00  0.00    -0.270 NA
ATOM     21  C   UNL     1      32.297  -3.899  18.794  0.00  0.00    +0.072 C 
ATOM     22  C   UNL     1      32.013  -2.968  17.601  0.00  0.00    +0.017 C 
ATOM     23  C   UNL     1      30.706  -2.173  17.769  0.00  0.00    +0.003 C 
ATOM     24  C   UNL     1      29.666  -2.978  18.555  0.00  0.00    +0.017 C 
ATOM     25  C   UNL     1      30.195  -3.367  19.953  0.00  0.00    +0.072 C 
ENDBRANCH  19  20
ENDBRANCH  18  19
ENDBRANCH  17  18
ENDBRANCH  14  17
ENDBRANCH   2  11
BRANCH   1  26
ATOM     26  C   UNL     1      37.633  -2.018  16.421  0.00  0.00    -0.008 A 
ATOM     27  C   UNL     1      37.700  -3.425  16.409  0.00  0.00    -0.000 A 
ATOM     28  C   UNL     1      36.808  -4.176  15.639  0.00  0.00    +0.036 A 
ATOM     29  C   UNL     1      35.831  -3.535  14.870  0.00  0.00    +0.134 A 
ATOM     30  C   UNL     1      35.750  -2.140  14.877  0.00  0.00    +0.036 A 
ATOM     31  C   UNL     1      36.639  -1.385  15.648  0.00  0.00    -0.000 A 
BRANCH  29  32
ATOM     32  O   UNL     1      34.936  -4.273  14.099  0.00  0.00    -0.506 OA
ATOM     33  H   UNL     1      34.969  -5.286  14.073  0.00  0.00    +0.292 HD
ENDBRANCH  29  32
ENDBRANCH   1  26
BRANCH   7  34
ATOM     34  O   UNL     1      38.719   4.276  13.995  0.00  0.00    -0.505 OA
ATOM     35  H   UNL     1      39.556   4.146  13.437  0.00  0.00    +0.292 HD
ENDBRANCH   7  34
TORSDOF 8
ENDMDL
MODEL        5
REMARK  Name = CMP_1
REMARK  8 active torsions:
REMARK  status: ('A' for Active; 'I' for Inactive)
REMARK    1  A    between atoms: C_1  and  C_17
REMARK    2  A    between atoms: C_5  and  O_6
REMARK    3  A    between atoms: C_11  and  C_21
REMARK    4  A    between atoms: O_13  and  C_14
REMARK    5  A    between atoms: C_24  and  O_27
REMARK    6  A    between atoms: O_27  and  C_28
REMARK    7  A    between atoms: C_28  and  C_29
REMARK    8  A    between atoms: C_29  and  N_30
REMARK                            x       y       z     vdW  Elec       q    Type
REMARK                         _______ _______ _______ _____ _____    ______ ____
ROOT
ATOM      1  C   UNL     1      33.330  -2.887  18.378  0.00  0.00    +0.118 C 
ATOM      2  C   UNL     1      32.917  -4.120  19.203  0.00  0.00    +0.202 C 
ATOM      3  O   UNL     1      33.605  -5.291  18.776  0.00  0.00    -0.473 OA
ATOM      4  C   UNL     1      33.728  -5.682  17.441  0.00  0.00    +0.145 A 
ATOM      5  C   UNL     1      33.449  -4.803  16.371  0.00  0.00    +0.063 A 
ATOM      6  C   UNL     1      33.663  -5.233  15.054  0.00  0.00    +0.046 A 
ATOM      7  C   UNL     1      34.128  -6.529  14.794  0.00  0.00    +0.134 A 
ATOM      8  C   UNL     1      34.394  -7.396  15.856  0.00  0.00    +0.040 A 
ATOM      9  C   UNL     1      34.197  -6.973  17.172  0.00  0.00    +0.041 A 
ATOM     10  S   UNL     1      32.876  -3.108  16.617  0.00  0.00    -0.103 S 
ENDROOT
BRANCH   2  11
ATOM     11  C   UNL     1      33.133  -3.897  20.685  0.00  0.00    +0.019 A 
ATOM     12  C   UNL     1      34.263  -4.440  21.316  0.00  0.00    +0.002 A 
ATOM     13  C   UNL     1      34.448  -4.290  22.693  0.00  0.00    +0.037 A 
ATOM     14  C   UNL     1      33.500  -3.592  23.466  0.00  0.00    +0.139 A 
ATOM     15  C   UNL     1      32.366  -3.066  22.839  0.00  0.00    +0.037 A 
ATOM     16  C   UNL     1      32.176  -3.221  21.463  0.00  0.00    +0.002 A 
BRANCH  14  17
ATOM     17  O   UNL     1      33.638  -3.403  24.851  0.00  0.00    -0.474 OA
BRANCH  17  18
ATOM     18  C   UNL     1      32.579  -3.075  25.751  0.00  0.00    +0.223 C 
BRANCH  18  19
ATOM     19  C   UNL     1      33.130  -2.321  26.980  0.00  0.00    +0.120 C 
BRANCH  19  20
ATOM     20  N   UNL     1      33.211  -0.853  26.809  0.00  0.00    -0.270 NA
ATOM     21  C   UNL     1      32.139  -0.114  27.502  0.00  0.00    +0.072 C 
ATOM     22  C   UNL     1      32.045   1.322  26.954  0.00  0.00    +0.017 C 
ATOM     23  C   UNL     1      33.387   1.831  26.397  0.00  0.00    +0.003 C 
ATOM     24  C   UNL     1      34.568   1.233  27.167  0.00  0.00    +0.017 C 
ATOM     25  C   UNL     1      34.558  -0.310  27.104  0.00  0.00    +0.072 C 
ENDBRANCH  19  20
ENDBRANCH  18  19
ENDBRANCH  17  18
ENDBRANCH  14  17
ENDBRANCH   2  11
BRANCH   1  26
ATOM     26  C   UNL     1      34.772  -2.446  18.591  0.00  0.00    -0.008 A 
ATOM     27  C   UNL     1      35.800  -3.138  17.921  0.00  0.00    -0.000 A 
ATOM     28  C   UNL     1      37.132  -2.735  18.045  0.00  0.00    +0.036 A 
ATOM     29  C   UNL     1      37.461  -1.630  18.839  0.00  0.00    +0.134 A 
ATOM     30  C   UNL     1      36.451  -0.931  19.504  0.00  0.00    +0.036 A 
ATOM     31  C   UNL     1      35.117  -1.330  19.381  0.00  0.00    -0.000 A 
BRANCH  29  32
ATOM     32  O   UNL     1      38.785  -1.218  18.970  0.00  0.00    -0.506 OA
ATOM     33  H   UNL     1      39.540  -1.705  18.500  0.00  0.00    +0.292 HD
ENDBRANCH  29  32
ENDBRANCH   1  26
BRANCH   7  34
ATOM     34  O   UNL     1      34.329  -6.963  13.485  0.00  0.00    -0.505 OA
ATOM     35  H   UNL     1      34.125  -6.365  12.691  0.00  0.00    +0.292 HD
ENDBRANCH   7  34
TORSDOF 8
ENDMDL
MODEL        6
REMARK  Name = CMP_1
REMARK  8 active torsions:
REMARK  status: ('A' for Active; 'I' for Inactive)
REMARK    1  A    between atoms: C_1  and  C_17
REMARK    2  A    between atoms: C_5  and  O_6
REMARK    3  A    between atoms: C_11  and  C_21
REMARK    4  A    between atoms: O_13  and  C_14
REMARK    5  A    between atoms: C_24  and  O_27
REMARK    6  A    between atoms: O_27  and  C_28
REMARK    7  A    between atoms: C_28  and  C_29
REMARK    8  A    between atoms: C_29  and  N_30
REMARK                            x       y       z     vdW  Elec       q    Type
REMARK                         _______ _______ _______ _____ _____    ______ ____
ROOT
ATOM      1  C   UNL     1      33.322  -3.032  18.247  0.00  0.00    +0.118 C 
ATOM      2  C   UNL     1      32.975  -4.251  19.122  0.00  0.00    +0.202 C 
ATOM      3  O   UNL     1      33.684  -5.413  18.706  0.00  0.00    -0.473 OA
ATOM      4  C   UNL     1      33.775  -5.841  17.380  0.00  0.00    +0.145 A 
ATOM      5  C   UNL     1      33.434  -5.005  16.295  0.00  0.00    +0.063 A 
ATOM      6  C   UNL     1      33.618  -5.468  14.985  0.00  0.00    +0.046 A 
ATOM      7  C   UNL     1      34.114  -6.757  14.747  0.00  0.00    +0.134 A 
ATOM      8  C   UNL     1      34.441  -7.582  15.825  0.00  0.00    +0.040 A 
ATOM      9  C   UNL     1      34.275  -7.125  17.134  0.00  0.00    +0.041 A 
ATOM     10  S   UNL     1      32.817  -3.321  16.510  0.00  0.00    -0.103 S 
ENDROOT
BRANCH   2  11
ATOM     11  C   UNL     1      33.233  -3.976  20.588  0.00  0.00    +0.019 A 
ATOM     12  C   UNL     1      34.377  -4.503  21.207  0.00  0.00    +0.002 A 
ATOM     13  C   UNL     1      34.600  -4.305  22.573  0.00  0.00    +0.037 A 
ATOM     14  C   UNL     1      33.678  -3.573  23.345  0.00  0.00    +0.139 A 
ATOM     15  C   UNL     1      32.529  -3.064  22.731  0.00  0.00    +0.037 A 
ATOM     16  C   UNL     1      32.301  -3.267  21.367  0.00  0.00    +0.002 A 
BRANCH  14  17
ATOM     17  O   UNL     1      33.854  -3.336  24.719  0.00  0.00    -0.474 OA
BRANCH  17  18
ATOM     18  C   UNL     1      32.842  -3.466  25.718  0.00  0.00    +0.223 C 
BRANCH  18  19
ATOM     19  C   UNL     1      32.499  -2.087  26.320  0.00  0.00    +0.120 C 
BRANCH  19  20
ATOM     20  N   UNL     1      31.089  -1.941  26.746  0.00  0.00    -0.270 NA
ATOM     21  C   UNL     1      30.919  -1.141  27.973  0.00  0.00    +0.072 C 
ATOM     22  C   UNL     1      29.518  -1.376  28.569  0.00  0.00    +0.017 C 
ATOM     23  C   UNL     1      28.480  -1.771  27.503  0.00  0.00    +0.003 C 
ATOM     24  C   UNL     1      28.790  -1.109  26.157  0.00  0.00    +0.017 C 
ATOM     25  C   UNL     1      30.197  -1.497  25.649  0.00  0.00    +0.072 C 
ENDBRANCH  19  20
ENDBRANCH  18  19
ENDBRANCH  17  18
ENDBRANCH  14  17
ENDBRANCH   2  11
BRANCH   1  26
ATOM     26  C   UNL     1      34.757  -2.542  18.398  0.00  0.00    -0.008 A 
ATOM     27  C   UNL     1      35.005  -1.400  19.185  0.00  0.00    -0.000 A 
ATOM     28  C   UNL     1      36.309  -0.946  19.394  0.00  0.00    +0.036 A 
ATOM     29  C   UNL     1      37.390  -1.625  18.821  0.00  0.00    +0.134 A 
ATOM     30  C   UNL     1      37.159  -2.761  18.042  0.00  0.00    +0.036 A 
ATOM     31  C   UNL     1      35.855  -3.221  17.834  0.00  0.00    -0.000 A 
BRANCH  29  32
ATOM     32  O   UNL     1      38.695  -1.182  19.021  0.00  0.00    -0.506 OA
ATOM     33  H   UNL     1      38.896  -0.360  19.581  0.00  0.00    +0.292 HD
ENDBRANCH  29  32
ENDBRANCH   1  26
BRANCH   7  34
ATOM     34  O   UNL     1      34.284  -7.224  13.446  0.00  0.00    -0.505 OA
ATOM     35  H   UNL     1      34.036  -6.658  12.642  0.00  0.00    +0.292 HD
ENDBRANCH   7  34
TORSDOF 8
ENDMDL
MODEL        7
REMARK  Name = CMP_1
REMARK  8 active torsions:
REMARK  status: ('A' for Active; 'I' for Inactive)
REMARK    1  A    between atoms: C_1  and  C_17
REMARK    2  A    between atoms: C_5  and  O_6
REMARK    3  A    between atoms: C_11  and  C_21
REMARK    4  A    between atoms: O_13  and  C_14
REMARK    5  A    between atoms: C_24  and  O_27
REMARK    6  A    between atoms: O_27  and  C_28
REMARK    7  A    between atoms: C_28  and  C_29
REMARK    8  A    between atoms: C_29  and  N_30
REMARK                            x       y       z     vdW  Elec       q    Type
REMARK                         _______ _______ _______ _____ _____    ______ ____
ROOT
ATOM      1  C   UNL     1      33.961  -4.853  20.938  0.00  0.00    +0.118 C 
ATOM      2  C   UNL     1      34.632  -3.971  22.007  0.00  0.00    +0.202 C 
ATOM      3  O   UNL     1      35.482  -2.991  21.420  0.00  0.00    -0.473 OA
ATOM      4  C   UNL     1      36.426  -3.267  20.428  0.00  0.00    +0.145 A 
ATOM      5  C   UNL     1      36.419  -4.476  19.699  0.00  0.00    +0.063 A 
ATOM      6  C   UNL     1      37.348  -4.662  18.666  0.00  0.00    +0.046 A 
ATOM      7  C   UNL     1      38.292  -3.670  18.369  0.00  0.00    +0.134 A 
ATOM      8  C   UNL     1      38.299  -2.480  19.100  0.00  0.00    +0.040 A 
ATOM      9  C   UNL     1      37.369  -2.279  20.122  0.00  0.00    +0.041 A 
ATOM     10  S   UNL     1      35.220  -5.794  19.996  0.00  0.00    -0.103 S 
ENDROOT
BRANCH   2  11
ATOM     11  C   UNL     1      33.609  -3.309  22.905  0.00  0.00    +0.019 A 
ATOM     12  C   UNL     1      33.021  -2.095  22.516  0.00  0.00    +0.002 A 
ATOM     13  C   UNL     1      32.116  -1.443  23.359  0.00  0.00    +0.037 A 
ATOM     14  C   UNL     1      31.785  -1.996  24.611  0.00  0.00    +0.139 A 
ATOM     15  C   UNL     1      32.386  -3.196  25.004  0.00  0.00    +0.037 A 
ATOM     16  C   UNL     1      33.295  -3.846  24.166  0.00  0.00    +0.002 A 
BRANCH  14  17
ATOM     17  O   UNL     1      30.878  -1.389  25.495  0.00  0.00    -0.474 OA
BRANCH  17  18
ATOM     18  C   UNL     1      31.152  -1.040  26.852  0.00  0.00    +0.223 C 
BRANCH  18  19
ATOM     19  C   UNL     1      30.168   0.045  27.338  0.00  0.00    +0.120 C 
BRANCH  19  20
ATOM     20  N   UNL     1      28.857  -0.476  27.786  0.00  0.00    -0.270 NA
ATOM     21  C   UNL     1      27.766  -0.250  26.820  0.00  0.00    +0.072 C 
ATOM     22  C   UNL     1      26.401  -0.435  27.508  0.00  0.00    +0.017 C 
ATOM     23  C   UNL     1      26.468  -1.401  28.704  0.00  0.00    +0.003 C 
ATOM     24  C   UNL     1      27.521  -2.491  28.477  0.00  0.00    +0.017 C 
ATOM     25  C   UNL     1      28.922  -1.881  28.252  0.00  0.00    +0.072 C 
ENDBRANCH  19  20
ENDBRANCH  18  19
ENDBRANCH  17  18
ENDBRANCH  14  17
ENDBRANCH   2  11
BRANCH   1  26
ATOM     26  C   UNL     1      32.958  -4.117  20.059  0.00  0.00    -0.008 A 
ATOM     27  C   UNL     1      31.611  -4.061  20.467  0.00  0.00    -0.000 A 
ATOM     28  C   UNL     1      30.666  -3.353  19.720  0.00  0.00    +0.036 A 
ATOM     29  C   UNL     1      31.052  -2.686  18.551  0.00  0.00    +0.134 A 
ATOM     30  C   UNL     1      32.385  -2.729  18.138  0.00  0.00    +0.036 A 
ATOM     31  C   UNL     1      33.334  -3.434  18.884  0.00  0.00    -0.000 A 
BRANCH  29  32
ATOM     32  O   UNL     1      30.119  -1.977  17.797  0.00  0.00    -0.506 OA
ATOM     33  H   UNL     1      29.144  -1.927  18.071  0.00  0.00    +0.292 HD
ENDBRANCH  29  32
ENDBRANCH   1  26
BRANCH   7  34
ATOM     34  O   UNL     1      39.225  -3.858  17.352  0.00  0.00    -0.505 OA
ATOM     35  H   UNL     1      39.260  -4.719  16.817  0.00  0.00    +0.292 HD
ENDBRANCH   7  34
TORSDOF 8
ENDMDL
MODEL        8
REMARK  Name = CMP_1
REMARK  8 active torsions:
REMARK  status: ('A' for Active; 'I' for Inactive)
REMARK    1  A    between atoms: C_1  and  C_17
REMARK    2  A    between atoms: C_5  and  O_6
REMARK    3  A    between atoms: C_11  and  C_21
REMARK    4  A    between atoms: O_13  and  C_14
REMARK    5  A    between atoms: C_24  and  O_27
REMARK    6  A    between atoms: O_27  and  C_28
REMARK    7  A    between atoms: C_28  and  C_29
REMARK    8  A    between atoms: C_29  and  N_30
REMARK                            x       y       z     vdW  Elec       q    Type
REMARK                         _______ _______ _______ _____ _____    ______ ____
ROOT
ATOM      1  C   UNL     1      36.733  -2.982  17.625  0.00  0.00    +0.118 C 
ATOM      2  C   UNL     1      35.944  -2.996  16.303  0.00  0.00    +0.202 C 
ATOM      3  O   UNL     1      34.627  -2.482  16.474  0.00  0.00    -0.473 OA
ATOM      4  C   UNL     1      33.764  -2.870  17.501  0.00  0.00    +0.145 A 
ATOM      5  C   UNL     1      34.216  -3.575  18.638  0.00  0.00    +0.063 A 
ATOM      6  C   UNL     1      33.312  -3.871  19.668  0.00  0.00    +0.046 A 
ATOM      7  C   UNL     1      31.967  -3.493  19.567  0.00  0.00    +0.134 A 
ATOM      8  C   UNL     1      31.524  -2.803  18.436  0.00  0.00    +0.040 A 
ATOM      9  C   UNL     1      32.419  -2.492  17.410  0.00  0.00    +0.041 A 
ATOM     10  S   UNL     1      35.937  -4.074  18.863  0.00  0.00    -0.103 S 
ENDROOT
BRANCH   2  11
ATOM     11  C   UNL     1      36.668  -2.233  15.215  0.00  0.00    +0.019 A 
ATOM     12  C   UNL     1      37.820  -2.778  14.628  0.00  0.00    +0.002 A 
ATOM     13  C   UNL     1      38.532  -2.062  13.661  0.00  0.00    +0.037 A 
ATOM     14  C   UNL     1      38.100  -0.781  13.264  0.00  0.00    +0.139 A 
ATOM     15  C   UNL     1      36.962  -0.232  13.863  0.00  0.00    +0.037 A 
ATOM     16  C   UNL     1      36.253  -0.944  14.834  0.00  0.00    +0.002 A 
BRANCH  14  17
ATOM     17  O   UNL     1      38.770  -0.019  12.293  0.00  0.00    -0.474 OA
BRANCH  17  18
ATOM     18  C   UNL     1      39.849   0.880  12.546  0.00  0.00    +0.223 C 
BRANCH  18  19
ATOM     19  C   UNL     1      39.346   2.340  12.545  0.00  0.00    +0.120 C 
BRANCH  19  20
ATOM     20  N   UNL     1      38.502   2.695  13.707  0.00  0.00    -0.270 NA
ATOM     21  C   UNL     1      39.228   3.409  14.773  0.00  0.00    +0.072 C 
ATOM     22  C   UNL     1      38.417   3.376  16.082  0.00  0.00    +0.017 C 
ATOM     23  C   UNL     1      36.902   3.256  15.836  0.00  0.00    +0.003 C 
ATOM     24  C   UNL     1      36.495   3.962  14.539  0.00  0.00    +0.017 C 
ATOM     25  C   UNL     1      37.244   3.376  13.321  0.00  0.00    +0.072 C 
ENDBRANCH  19  20
ENDBRANCH  18  19
ENDBRANCH  17  18
ENDBRANCH  14  17
ENDBRANCH   2  11
BRANCH   1  26
ATOM     26  C   UNL     1      37.053  -1.588  18.150  0.00  0.00    -0.008 A 
ATOM     27  C   UNL     1      38.344  -1.065  17.942  0.00  0.00    -0.000 A 
ATOM     28  C   UNL     1      38.666   0.229  18.359  0.00  0.00    +0.036 A 
ATOM     29  C   UNL     1      37.703   1.025  18.989  0.00  0.00    +0.134 A 
ATOM     30  C   UNL     1      36.417   0.520  19.196  0.00  0.00    +0.036 A 
ATOM     31  C   UNL     1      36.090  -0.773  18.778  0.00  0.00    -0.000 A 
BRANCH  29  32
ATOM     32  O   UNL     1      38.011   2.316  19.409  0.00  0.00    -0.506 OA
ATOM     33  H   UNL     1      38.935   2.711  19.273  0.00  0.00    +0.292 HD
ENDBRANCH  29  32
ENDBRANCH   1  26
BRANCH   7  34
ATOM     34  O   UNL     1      31.064  -3.797  20.584  0.00  0.00    -0.505 OA
ATOM     35  H   UNL     1      31.349  -4.315  21.408  0.00  0.00    +0.292 HD
ENDBRANCH   7  34
TORSDOF 8
ENDMDL
MODEL        9
REMARK  Name = CMP_1
REMARK  8 active torsions:
REMARK  status: ('A' for Active; 'I' for Inactive)
REMARK    1  A    between atoms: C_1  and  C_17
REMARK    2  A    between atoms: C_5  and  O_6
REMARK    3  A    between atoms: C_11  and  C_21
REMARK    4  A    between atoms: O_13  and  C_14
REMARK    5  A    between atoms: C_24  and  O_27
REMARK    6  A    between atoms: O_27  and  C_28
REMARK    7  A    between atoms: C_28  and  C_29
REMARK    8  A    between atoms: C_29  and  N_30
REMARK                            x       y       z     vdW  Elec       q    Type
REMARK                         _______ _______ _______ _____ _____    ______ ____
ROOT
ATOM      1  C   UNL     1      37.424  -3.664  18.287  0.00  0.00    +0.118 C 
ATOM      2  C   UNL     1      37.337  -2.680  19.468  0.00  0.00    +0.202 C 
ATOM      3  O   UNL     1      37.102  -1.348  19.023  0.00  0.00    -0.473 OA
ATOM      4  C   UNL     1      37.815  -0.730  17.994  0.00  0.00    +0.145 A 
ATOM      5  C   UNL     1      38.623  -1.460  17.095  0.00  0.00    +0.063 A 
ATOM      6  C   UNL     1      39.255  -0.790  16.038  0.00  0.00    +0.046 A 
ATOM      7  C   UNL     1      39.107   0.594  15.882  0.00  0.00    +0.134 A 
ATOM      8  C   UNL     1      38.313   1.312  16.779  0.00  0.00    +0.040 A 
ATOM      9  C   UNL     1      37.669   0.652  17.827  0.00  0.00    +0.041 A 
ATOM     10  S   UNL     1      38.844  -3.249  17.206  0.00  0.00    -0.103 S 
ENDROOT
BRANCH   2  11
ATOM     11  C   UNL     1      36.274  -3.096  20.462  0.00  0.00    +0.019 A 
ATOM     12  C   UNL     1      35.053  -2.406  20.509  0.00  0.00    +0.002 A 
ATOM     13  C   UNL     1      34.083  -2.742  21.458  0.00  0.00    +0.037 A 
ATOM     14  C   UNL     1      34.322  -3.778  22.381  0.00  0.00    +0.139 A 
ATOM     15  C   UNL     1      35.546  -4.453  22.345  0.00  0.00    +0.037 A 
ATOM     16  C   UNL     1      36.518  -4.114  21.401  0.00  0.00    +0.002 A 
BRANCH  14  17
ATOM     17  O   UNL     1      33.382  -4.164  23.352  0.00  0.00    -0.474 OA
BRANCH  17  18
ATOM     18  C   UNL     1      32.469  -3.288  24.015  0.00  0.00    +0.223 C 
BRANCH  18  19
ATOM     19  C   UNL     1      32.774  -3.237  25.527  0.00  0.00    +0.120 C 
BRANCH  19  20
ATOM     20  N   UNL     1      31.797  -2.457  26.320  0.00  0.00    -0.270 NA
ATOM     21  C   UNL     1      32.414  -1.429  27.178  0.00  0.00    +0.072 C 
ATOM     22  C   UNL     1      31.411  -0.960  28.248  0.00  0.00    +0.017 C 
ATOM     23  C   UNL     1      29.948  -1.110  27.794  0.00  0.00    +0.003 C 
ATOM     24  C   UNL     1      29.815  -0.910  26.281  0.00  0.00    +0.017 C 
ATOM     25  C   UNL     1      30.684  -1.921  25.501  0.00  0.00    +0.072 C 
ENDBRANCH  19  20
ENDBRANCH  18  19
ENDBRANCH  17  18
ENDBRANCH  14  17
ENDBRANCH   2  11
BRANCH   1  26
ATOM     26  C   UNL     1      36.114  -3.857  17.534  0.00  0.00    -0.008 A 
ATOM     27  C   UNL     1      35.260  -4.910  17.917  0.00  0.00    -0.000 A 
ATOM     28  C   UNL     1      34.025  -5.093  17.290  0.00  0.00    +0.036 A 
ATOM     29  C   UNL     1      33.620  -4.225  16.270  0.00  0.00    +0.134 A 
ATOM     30  C   UNL     1      34.454  -3.173  15.884  0.00  0.00    +0.036 A 
ATOM     31  C   UNL     1      35.690  -2.986  16.511  0.00  0.00    -0.000 A 
BRANCH  29  32
ATOM     32  O   UNL     1      32.391  -4.396  15.637  0.00  0.00    -0.506 OA
ATOM     33  H   UNL     1      31.763  -5.150  15.895  0.00  0.00    +0.292 HD
ENDBRANCH  29  32
ENDBRANCH   1  26
BRANCH   7  34
ATOM     34  O   UNL     1      39.745   1.264  14.839  0.00  0.00    -0.505 OA
ATOM     35  H   UNL     1      40.345   0.776  14.183  0.00  0.00    +0.292 HD
ENDBRANCH   7  34
TORSDOF 8
ENDMDL
MODEL       10
REMARK  Name = CMP_1
REMARK  8 active torsions:
REMARK  status: ('A' for Active; 'I' for Inactive)
REMARK    1  A    between atoms: C_1  and  C_17
REMARK    2  A    between atoms: C_5  and  O_6
REMARK    3  A    between atoms: C_11  and  C_21
REMARK    4  A    between atoms: O_13  and  C_14
REMARK    5  A    between atoms: C_24  and  O_27
REMARK    6  A    between atoms: O_27  and  C_28
REMARK    7  A    between atoms: C_28  and  C_29
REMARK    8  A    between atoms: C_29  and  N_30
REMARK                            x       y       z     vdW  Elec       q    Type
REMARK                         _______ _______ _______ _____ _____    ______ ____
ROOT
ATOM      1  C   UNL     1      35.508  -2.034  16.460  0.00  0.00    +0.118 C 
ATOM      2  C   UNL     1      35.289  -1.267  17.776  0.00  0.00    +0.202 C 
ATOM      3  O   UNL     1      35.550  -2.087  18.911  0.00  0.00    -0.473 OA
ATOM      4  C   UNL     1      35.048  -3.380  19.072  0.00  0.00    +0.145 A 
ATOM      5  C   UNL     1      34.490  -4.110  18.000  0.00  0.00    +0.063 A 
ATOM      6  C   UNL     1      34.071  -5.431  18.211  0.00  0.00    +0.046 A 
ATOM      7  C   UNL     1      34.182  -6.020  19.477  0.00  0.00    +0.134 A 
ATOM      8  C   UNL     1      34.727  -5.290  20.536  0.00  0.00    +0.040 A 
ATOM      9  C   UNL     1      35.159  -3.978  20.332  0.00  0.00    +0.041 A 
ATOM     10  S   UNL     1      34.337  -3.438  16.330  0.00  0.00    -0.103 S 
ENDROOT
BRANCH   2  11
ATOM     11  C   UNL     1      36.130  -0.009  17.834  0.00  0.00    +0.019 A 
ATOM     12  C   UNL     1      37.131   0.117  18.810  0.00  0.00    +0.002 A 
ATOM     13  C   UNL     1      37.878   1.294  18.912  0.00  0.00    +0.037 A 
ATOM     14  C   UNL     1      37.634   2.370  18.036  0.00  0.00    +0.139 A 
ATOM     15  C   UNL     1      36.624   2.249  17.076  0.00  0.00    +0.037 A 
ATOM     16  C   UNL     1      35.872   1.075  16.977  0.00  0.00    +0.002 A 
BRANCH  14  17
ATOM     17  O   UNL     1      38.358   3.572  18.087  0.00  0.00    -0.474 OA
BRANCH  17  18
ATOM     18  C   UNL     1      38.284   4.625  17.125  0.00  0.00    +0.223 C 
BRANCH  18  19
ATOM     19  C   UNL     1      38.467   5.995  17.810  0.00  0.00    +0.120 C 
BRANCH  19  20
ATOM     20  N   UNL     1      39.773   6.172  18.484  0.00  0.00    -0.270 NA
ATOM     21  C   UNL     1      40.806   6.780  17.627  0.00  0.00    +0.072 C 
ATOM     22  C   UNL     1      42.203   6.554  18.236  0.00  0.00    +0.017 C 
ATOM     23  C   UNL     1      42.161   6.404  19.768  0.00  0.00    +0.003 C 
ATOM     24  C   UNL     1      41.034   7.245  20.376  0.00  0.00    +0.017 C 
ATOM     25  C   UNL     1      39.659   6.843  19.800  0.00  0.00    +0.072 C 
ENDBRANCH  19  20
ENDBRANCH  18  19
ENDBRANCH  17  18
ENDBRANCH  14  17
ENDBRANCH   2  11
BRANCH   1  26
ATOM     26  C   UNL     1      36.958  -2.415  16.190  0.00  0.00    -0.008 A 
ATOM     27  C   UNL     1      37.660  -1.737  15.175  0.00  0.00    -0.000 A 
ATOM     28  C   UNL     1      39.007  -2.017  14.928  0.00  0.00    +0.036 A 
ATOM     29  C   UNL     1      39.677  -2.978  15.693  0.00  0.00    +0.134 A 
ATOM     30  C   UNL     1      38.993  -3.654  16.707  0.00  0.00    +0.036 A 
ATOM     31  C   UNL     1      37.647  -3.375  16.959  0.00  0.00    -0.000 A 
BRANCH  29  32
ATOM     32  O   UNL     1      41.019  -3.265  15.457  0.00  0.00    -0.506 OA
ATOM     33  H   UNL     1      41.542  -2.792  14.729  0.00  0.00    +0.292 HD
ENDBRANCH  29  32
ENDBRANCH   1  26
BRANCH   7  34
ATOM     34  O   UNL     1      33.754  -7.329  19.692  0.00  0.00    -0.505 OA
ATOM     35  H   UNL     1      33.334  -7.878  18.950  0.00  0.00    +0.292 HD
ENDBRANCH   7  34
TORSDOF 8
ENDMDL
MODEL        2
REMARK  Name = CMP_1
REMARK  8 active torsions:
REMARK  status: ('A' for Active; 'I' for Inactive)
REMARK    1  A    between atoms: C_1  and  C_17
REMARK    2  A    between atoms: C_5  and  O_6
REMARK    3  A    between atoms: C_11  and  C_21
REMARK    4  A    between atoms: O_13  and  C_14
REMARK    5  A    between atoms: C_24  and  O_27
REMARK    6  A    between atoms: O_27  and  C_28
REMARK    7  A    between atoms: C_28  and  C_29
REMARK    8  A    between atoms: C_29  and  N_30
REMARK                            x       y       z     vdW  Elec       q    Type
REMARK                         _______ _______ _______ _____ _____    ______ ____
ROOT
ATOM      1  C   UNL     1      36.047  -3.237  17.874  0.00  0.00    +0.118 C 
ATOM      2  C   UNL     1      35.971  -2.170  18.982  0.00  0.00    +0.202 C 
ATOM      3  O   UNL     1      35.259  -1.016  18.550  0.00  0.00    -0.473 OA
ATOM      4  C   UNL     1      35.494  -0.362  17.338  0.00  0.00    +0.145 A 
ATOM      5  C   UNL     1      36.230  -0.961  16.293  0.00  0.00    +0.063 A 
ATOM      6  C   UNL     1      36.364  -0.286  15.072  0.00  0.00    +0.046 A 
ATOM      7  C   UNL     1      35.797   0.979  14.891  0.00  0.00    +0.134 A 
ATOM      8  C   UNL     1      35.080   1.575  15.935  0.00  0.00    +0.040 A 
ATOM      9  C   UNL     1      34.926   0.903  17.149  0.00  0.00    +0.041 A 
ATOM     10  S   UNL     1      36.973  -2.601  16.428  0.00  0.00    -0.103 S 
ENDROOT
BRANCH   2  11
ATOM     11  C   UNL     1      35.350  -2.725  20.246  0.00  0.00    +0.019 A 
ATOM     12  C   UNL     1      36.105  -3.505  21.141  0.00  0.00    +0.002 A 
ATOM     13  C   UNL     1      35.540  -3.956  22.337  0.00  0.00    +0.037 A 
ATOM     14  C   UNL     1      34.211  -3.628  22.663  0.00  0.00    +0.139 A 
ATOM     15  C   UNL     1      33.465  -2.845  21.776  0.00  0.00    +0.037 A 
ATOM     16  C   UNL     1      34.029  -2.391  20.581  0.00  0.00    +0.002 A 
BRANCH  14  17
ATOM     17  O   UNL     1      33.602  -4.051  23.853  0.00  0.00    -0.474 OA
BRANCH  17  18
ATOM     18  C   UNL     1      32.479  -3.412  24.456  0.00  0.00    +0.223 C 
BRANCH  18  19
ATOM     19  C   UNL     1      32.731  -3.234  25.953  0.00  0.00    +0.120 C 
BRANCH  19  20
ATOM     20  N   UNL     1      33.233  -1.873  26.241  0.00  0.00    -0.270 NA
ATOM     21  C   UNL     1      33.150  -1.532  27.688  0.00  0.00    +0.072 C 
ATOM     22  C   UNL     1      31.998  -0.570  28.014  0.00  0.00    +0.017 C 
ATOM     23  C   UNL     1      32.134   0.745  27.230  0.00  0.00    +0.003 C 
ATOM     24  C   UNL     1      32.797   0.551  25.855  0.00  0.00    +0.017 C 
ATOM     25  C   UNL     1      32.596  -0.879  25.343  0.00  0.00    +0.072 C 
ENDBRANCH  19  20
ENDBRANCH  18  19
ENDBRANCH  17  18
ENDBRANCH  14  17
ENDBRANCH   2  11
BRANCH   1  26
ATOM     26  C   UNL     1      34.706  -3.865  17.515  0.00  0.00    -0.008 A 
ATOM     27  C   UNL     1      34.462  -5.203  17.884  0.00  0.00    -0.000 A 
ATOM     28  C   UNL     1      33.226  -5.801  17.624  0.00  0.00    +0.036 A 
ATOM     29  C   UNL     1      32.211  -5.073  16.994  0.00  0.00    +0.134 A 
ATOM     30  C   UNL     1      32.439  -3.745  16.627  0.00  0.00    +0.036 A 
ATOM     31  C   UNL     1      33.673  -3.142  16.887  0.00  0.00    -0.000 A 
BRANCH  29  32
ATOM     32  O   UNL     1      30.974  -5.658  16.731  0.00  0.00    -0.506 OA
ATOM     33  H   UNL     1      30.779  -6.620  16.985  0.00  0.00    +0.292 HD
ENDBRANCH  29  32
ENDBRANCH   1  26
BRANCH   7  34
ATOM     34  O   UNL     1      35.951   1.634  13.671  0.00  0.00    -0.505 OA
ATOM     35  H   UNL     1      35.551   2.551  13.508  0.00  0.00    +0.292 HD
ENDBRANCH   7  34
TORSDOF 8
ENDMDL
MODEL        3
REMARK  Name = CMP_1
REMARK  8 active torsions:
REMARK  status: ('A' for Active; 'I' for Inactive)
REMARK    1  A    between atoms: C_1  and  C_17
REMARK    2  A    between atoms: C_5  and  O_6
REMARK    3  A    between atoms: C_11  and  C_21
REMARK    4  A    between atoms: O_13  and  C_14
REMARK    5  A    between atoms: C_24  and  O_27
REMARK    6  A    between atoms: O_27  and  C_28
REMARK    7  A    between atoms: C_28  and  C_29
REMARK    8  A    between atoms: C_29  and  N_30
REMARK                            x       y       z     vdW  Elec       q    Type
REMARK                         _______ _______ _______ _____ _____    ______ ____
ROOT
ATOM      1  C   UNL     1      37.698  -1.124  17.108  0.00  0.00    +0.118 C 
ATOM      2  C   UNL     1      36.847  -0.455  18.204  0.00  0.00    +0.202 C 
ATOM      3  O   UNL     1      35.747   0.260  17.651  0.00  0.00    -0.473 OA
ATOM      4  C   UNL     1      35.856   1.154  16.584  0.00  0.00    +0.145 A 
ATOM      5  C   UNL     1      36.995   1.196  15.752  0.00  0.00    +0.063 A 
ATOM      6  C   UNL     1      37.011   2.062  14.649  0.00  0.00    +0.046 A 
ATOM      7  C   UNL     1      35.921   2.896  14.383  0.00  0.00    +0.134 A 
ATOM      8  C   UNL     1      34.799   2.860  15.218  0.00  0.00    +0.040 A 
ATOM      9  C   UNL     1      34.767   1.989  16.309  0.00  0.00    +0.041 A 
ATOM     10  S   UNL     1      38.436   0.137  16.004  0.00  0.00    -0.103 S 
ENDROOT
BRANCH   2  11
ATOM     11  C   UNL     1      36.357  -1.464  19.221  0.00  0.00    +0.019 A 
ATOM     12  C   UNL     1      37.263  -2.203  20.003  0.00  0.00    +0.002 A 
ATOM     13  C   UNL     1      36.799  -3.083  20.984  0.00  0.00    +0.037 A 
ATOM     14  C   UNL     1      35.418  -3.233  21.206  0.00  0.00    +0.139 A 
ATOM     15  C   UNL     1      34.517  -2.492  20.433  0.00  0.00    +0.037 A 
ATOM     16  C   UNL     1      34.980  -1.610  19.453  0.00  0.00    +0.002 A 
BRANCH  14  17
ATOM     17  O   UNL     1      34.903  -4.099  22.182  0.00  0.00    -0.474 OA
BRANCH  17  18
ATOM     18  C   UNL     1      33.562  -4.063  22.664  0.00  0.00    +0.223 C 
BRANCH  18  19
ATOM     19  C   UNL     1      33.550  -3.589  24.117  0.00  0.00    +0.120 C 
BRANCH  19  20
ATOM     20  N   UNL     1      32.199  -3.131  24.507  0.00  0.00    -0.270 NA
ATOM     21  C   UNL     1      31.755  -1.943  23.726  0.00  0.00    +0.072 C 
ATOM     22  C   UNL     1      31.819  -0.636  24.530  0.00  0.00    +0.017 C 
ATOM     23  C   UNL     1      30.947  -0.719  25.794  0.00  0.00    +0.003 C 
ATOM     24  C   UNL     1      30.874  -2.143  26.373  0.00  0.00    +0.017 C 
ATOM     25  C   UNL     1      32.106  -2.962  25.977  0.00  0.00    +0.072 C 
ENDBRANCH  19  20
ENDBRANCH  18  19
ENDBRANCH  17  18
ENDBRANCH  14  17
ENDBRANCH   2  11
BRANCH   1  26
ATOM     26  C   UNL     1      36.990  -2.250  16.364  0.00  0.00    -0.008 A 
ATOM     27  C   UNL     1      37.506  -3.558  16.461  0.00  0.00    -0.000 A 
ATOM     28  C   UNL     1      36.857  -4.629  15.842  0.00  0.00    +0.036 A 
ATOM     29  C   UNL     1      35.680  -4.414  15.117  0.00  0.00    +0.134 A 
ATOM     30  C   UNL     1      35.156  -3.123  15.016  0.00  0.00    +0.036 A 
ATOM     31  C   UNL     1      35.800  -2.049  15.637  0.00  0.00    -0.000 A 
BRANCH  29  32
ATOM     32  O   UNL     1      35.024  -5.474  14.496  0.00  0.00    -0.506 OA
ATOM     33  H   UNL     1      35.380  -6.422  14.550  0.00  0.00    +0.292 HD
ENDBRANCH  29  32
ENDBRANCH   1  26
BRANCH   7  34
ATOM     34  O   UNL     1      35.963   3.753  13.285  0.00  0.00    -0.505 OA
ATOM     35  H   UNL     1      35.189   4.369  13.065  0.00  0.00    +0.292 HD
ENDBRANCH   7  34
TORSDOF 8
ENDMDL
MODEL        4
REMARK  Name = CMP_1
REMARK  8 active torsions:
REMARK  status: ('A' for Active; 'I' for Inactive)
REMARK    1  A    between atoms: C_1  and  C_17
REMARK    2  A    between atoms: C_5  and  O_6
REMARK    3  A    between atoms: C_11  and  C_21
REMARK    4  A    between atoms: O_13  and  C_14
REMARK    5  A    between atoms: C_24  and  O_27
REMARK    6  A    between atoms: O_27  and  C_28
REMARK    7  A    between atoms: C_28  and  C_29
REMARK    8  A    between atoms: C_29  and  N_30
REMARK                            x       y       z     vdW  Elec       q    Type
REMARK                         _______ _______ _______ _____ _____    ______ ____
ROOT
ATOM      1  C   UNL     1      36.515  -3.163  17.706  0.00  0.00    +0.118 C 
ATOM      2  C   UNL     1      35.766  -3.176  16.360  0.00  0.00    +0.202 C 
ATOM      3  O   UNL     1      34.468  -2.602  16.478  0.00  0.00    -0.473 OA
ATOM      4  C   UNL     1      33.557  -2.934  17.483  0.00  0.00    +0.145 A 
ATOM      5  C   UNL     1      33.945  -3.626  18.650  0.00  0.00    +0.063 A 
ATOM      6  C   UNL     1      32.999  -3.861  19.658  0.00  0.00    +0.046 A 
ATOM      7  C   UNL     1      31.675  -3.437  19.505  0.00  0.00    +0.134 A 
ATOM      8  C   UNL     1      31.292  -2.763  18.340  0.00  0.00    +0.040 A 
ATOM      9  C   UNL     1      32.231  -2.509  17.338  0.00  0.00    +0.041 A 
ATOM     10  S   UNL     1      35.636  -4.186  18.944  0.00  0.00    -0.103 S 
ENDROOT
BRANCH   2  11
ATOM     11  C   UNL     1      36.554  -2.470  15.278  0.00  0.00    +0.019 A 
ATOM     12  C   UNL     1      37.606  -3.120  14.607  0.00  0.00    +0.002 A 
ATOM     13  C   UNL     1      38.283  -2.482  13.565  0.00  0.00    +0.037 A 
ATOM     14  C   UNL     1      37.913  -1.183  13.169  0.00  0.00    +0.139 A 
ATOM     15  C   UNL     1      36.862  -0.541  13.831  0.00  0.00    +0.037 A 
ATOM     16  C   UNL     1      36.182  -1.179  14.872  0.00  0.00    +0.002 A 
BRANCH  14  17
ATOM     17  O   UNL     1      38.558  -0.503  12.125  0.00  0.00    -0.474 OA
BRANCH  17  18
ATOM     18  C   UNL     1      38.236   0.821  11.706  0.00  0.00    +0.223 C 
BRANCH  18  19
ATOM     19  C   UNL     1      39.362   1.775  12.102  0.00  0.00    +0.120 C 
BRANCH  19  20
ATOM     20  N   UNL     1      38.880   2.775  13.080  0.00  0.00    -0.270 NA
ATOM     21  C   UNL     1      39.546   2.638  14.406  0.00  0.00    +0.072 C 
ATOM     22  C   UNL     1      38.644   1.992  15.467  0.00  0.00    +0.017 C 
ATOM     23  C   UNL     1      37.354   2.804  15.671  0.00  0.00    +0.003 C 
ATOM     24  C   UNL     1      36.888   3.509  14.385  0.00  0.00    +0.017 C 
ATOM     25  C   UNL     1      37.399   2.778  13.139  0.00  0.00    +0.072 C 
ENDBRANCH  19  20
ENDBRANCH  18  19
ENDBRANCH  17  18
ENDBRANCH  14  17
ENDBRANCH   2  11
BRANCH   1  26
ATOM     26  C   UNL     1      36.880  -1.772  18.208  0.00  0.00    -0.008 A 
ATOM     27  C   UNL     1      38.221  -1.348  18.121  0.00  0.00    -0.000 A 
ATOM     28  C   UNL     1      38.591  -0.060  18.518  0.00  0.00    +0.036 A 
ATOM     29  C   UNL     1      37.626   0.829  19.005  0.00  0.00    +0.134 A 
ATOM     30  C   UNL     1      36.293   0.422  19.092  0.00  0.00    +0.036 A 
ATOM     31  C   UNL     1      35.919  -0.864  18.694  0.00  0.00    -0.000 A 
BRANCH  29  32
ATOM     32  O   UNL     1      37.982   2.115  19.403  0.00  0.00    -0.506 OA
ATOM     33  H   UNL     1      38.941   2.439  19.352  0.00  0.00    +0.292 HD
ENDBRANCH  29  32
ENDBRANCH   1  26
BRANCH   7  34
ATOM     34  O   UNL     1      30.751  -3.688  20.517  0.00  0.00    -0.505 OA
ATOM     35  H   UNL     1      29.785  -3.393  20.437  0.00  0.00    +0.292 HD
ENDBRANCH   7  34
TORSDOF 8
ENDMDL
MODEL        5
REMARK  Name = CMP_1
REMARK  8 active torsions:
REMARK  status: ('A' for Active; 'I' for Inactive)
REMARK    1  A    between atoms: C_1  and  C_17
REMARK    2  A    between atoms: C_5  and  O_6
REMARK    3  A    between atoms: C_11  and  C_21
REMARK    4  A    between atoms: O_13  and  C_14
REMARK    5  A    between atoms: C_24  and  O_27
REMARK    6  A    between atoms: O_27  and  C_28
REMARK    7  A    between atoms: C_28  and  C_29
REMARK    8  A    between atoms: C_29  and  N_30
REMARK                            x       y       z     vdW  Elec       q    Type
REMARK                         _______ _______ _______ _____ _____    ______ ____
ROOT
ATOM      1  C   UNL     1      33.285  -2.958  18.379  0.00  0.00    +0.118 C 
ATOM      2  C   UNL     1      32.887  -4.196  19.204  0.00  0.00    +0.202 C 
ATOM      3  O   UNL     1      33.589  -5.359  18.778  0.00  0.00    -0.473 OA
ATOM      4  C   UNL     1      33.711  -5.751  17.443  0.00  0.00    +0.145 A 
ATOM      5  C   UNL     1      33.426  -4.875  16.374  0.00  0.00    +0.063 A 
ATOM      6  C   UNL     1      33.643  -5.304  15.057  0.00  0.00    +0.046 A 
ATOM      7  C   UNL     1      34.116  -6.593  14.796  0.00  0.00    +0.134 A 
ATOM      8  C   UNL     1      34.385  -7.463  15.859  0.00  0.00    +0.040 A 
ATOM      9  C   UNL     1      34.188  -7.040  17.175  0.00  0.00    +0.041 A 
ATOM     10  S   UNL     1      32.838  -3.186  16.617  0.00  0.00    -0.103 S 
ENDROOT
BRANCH   2  11
ATOM     11  C   UNL     1      33.100  -3.970  20.685  0.00  0.00    +0.019 A 
ATOM     12  C   UNL     1      34.250  -4.454  21.334  0.00  0.00    +0.002 A 
ATOM     13  C   UNL     1      34.468  -4.182  22.687  0.00  0.00    +0.037 A 
ATOM     14  C   UNL     1      33.541  -3.412  23.415  0.00  0.00    +0.139 A 
ATOM     15  C   UNL     1      32.401  -2.925  22.766  0.00  0.00    +0.037 A 
ATOM     16  C   UNL     1      32.183  -3.194  21.413  0.00  0.00    +0.002 A 
BRANCH  14  17
ATOM     17  O   UNL     1      33.717  -3.107  24.772  0.00  0.00    -0.474 OA
BRANCH  17  18
ATOM     18  C   UNL     1      32.760  -3.387  25.792  0.00  0.00    +0.223 C 
BRANCH  18  19
ATOM     19  C   UNL     1      32.273  -2.079  26.413  0.00  0.00    +0.120 C 
BRANCH  19  20
ATOM     20  N   UNL     1      33.298  -1.022  26.275  0.00  0.00    -0.270 NA
ATOM     21  C   UNL     1      34.058  -0.799  27.537  0.00  0.00    +0.072 C 
ATOM     22  C   UNL     1      33.641   0.482  28.272  0.00  0.00    +0.017 C 
ATOM     23  C   UNL     1      33.835   1.722  27.384  0.00  0.00    +0.003 C 
ATOM     24  C   UNL     1      33.626   1.419  25.890  0.00  0.00    +0.017 C 
ATOM     25  C   UNL     1      32.707   0.209  25.696  0.00  0.00    +0.072 C 
ENDBRANCH  19  20
ENDBRANCH  18  19
ENDBRANCH  17  18
ENDBRANCH  14  17
ENDBRANCH   2  11
BRANCH   1  26
ATOM     26  C   UNL     1      34.722  -2.498  18.592  0.00  0.00    -0.008 A 
ATOM     27  C   UNL     1      35.756  -3.151  17.892  0.00  0.00    -0.000 A 
ATOM     28  C   UNL     1      37.081  -2.726  18.014  0.00  0.00    +0.036 A 
ATOM     29  C   UNL     1      37.397  -1.638  18.835  0.00  0.00    +0.134 A 
ATOM     30  C   UNL     1      36.381  -0.978  19.530  0.00  0.00    +0.036 A 
ATOM     31  C   UNL     1      35.053  -1.399  19.409  0.00  0.00    -0.000 A 
BRANCH  29  32
ATOM     32  O   UNL     1      38.714  -1.204  18.964  0.00  0.00    -0.506 OA
ATOM     33  H   UNL     1      39.473  -1.661  18.473  0.00  0.00    +0.292 HD
ENDBRANCH  29  32
ENDBRANCH   1  26
BRANCH   7  34
ATOM     34  O   UNL     1      34.316  -6.999  13.478  0.00  0.00    -0.505 OA
ATOM     35  H   UNL     1      34.659  -7.926  13.256  0.00  0.00    +0.292 HD
ENDBRANCH   7  34
TORSDOF 8
ENDMDL
MODEL        6
REMARK  Name = CMP_1
REMARK  8 active torsions:
REMARK  status: ('A' for Active; 'I' for Inactive)
REMARK    1  A    between atoms: C_1  and  C_17
REMARK    2  A    between atoms: C_5  and  O_6
REMARK    3  A    between atoms: C_11  and  C_21
REMARK    4  A    between atoms: O_13  and  C_14
REMARK    5  A    between atoms: C_24  and  O_27
REMARK    6  A    between atoms: O_27  and  C_28
REMARK    7  A    between atoms: C_28  and  C_29
REMARK    8  A    between atoms: C_29  and  N_30
REMARK                            x       y       z     vdW  Elec       q    Type
REMARK                         _______ _______ _______ _____ _____    ______ ____
ROOT
ATOM      1  C   UNL     1      38.082   0.412  16.972  0.00  0.00    +0.118 C 
ATOM      2  C   UNL     1      36.932   0.674  17.962  0.00  0.00    +0.202 C 
ATOM      3  O   UNL     1      35.761   1.136  17.297  0.00  0.00    -0.473 OA
ATOM      4  C   UNL     1      35.756   2.163  16.351  0.00  0.00    +0.145 A 
ATOM      5  C   UNL     1      36.940   2.621  15.733  0.00  0.00    +0.063 A 
ATOM      6  C   UNL     1      36.860   3.600  14.733  0.00  0.00    +0.046 A 
ATOM      7  C   UNL     1      35.625   4.140  14.361  0.00  0.00    +0.134 A 
ATOM      8  C   UNL     1      34.456   3.692  14.985  0.00  0.00    +0.040 A 
ATOM      9  C   UNL     1      34.523   2.705  15.971  0.00  0.00    +0.041 A 
ATOM     10  S   UNL     1      38.574   1.963  16.131  0.00  0.00    -0.103 S 
ENDROOT
BRANCH   2  11
ATOM     11  C   UNL     1      36.615  -0.557  18.784  0.00  0.00    +0.019 A 
ATOM     12  C   UNL     1      37.642  -1.374  19.290  0.00  0.00    +0.002 A 
ATOM     13  C   UNL     1      37.340  -2.471  20.102  0.00  0.00    +0.037 A 
ATOM     14  C   UNL     1      36.003  -2.765  20.429  0.00  0.00    +0.139 A 
ATOM     15  C   UNL     1      34.983  -1.947  19.931  0.00  0.00    +0.037 A 
ATOM     16  C   UNL     1      35.284  -0.849  19.121  0.00  0.00    +0.002 A 
BRANCH  14  17
ATOM     17  O   UNL     1      35.650  -3.850  21.244  0.00  0.00    -0.474 OA
BRANCH  17  18
ATOM     18  C   UNL     1      34.569  -4.741  20.977  0.00  0.00    +0.223 C 
BRANCH  18  19
ATOM     19  C   UNL     1      35.070  -5.923  20.148  0.00  0.00    +0.120 C 
BRANCH  19  20
ATOM     20  N   UNL     1      34.524  -5.867  18.775  0.00  0.00    -0.270 NA
ATOM     21  C   UNL     1      35.587  -5.674  17.749  0.00  0.00    +0.072 C 
ATOM     22  C   UNL     1      35.629  -4.245  17.189  0.00  0.00    +0.017 C 
ATOM     23  C   UNL     1      34.285  -3.857  16.550  0.00  0.00    +0.003 C 
ATOM     24  C   UNL     1      33.086  -4.531  17.238  0.00  0.00    +0.017 C 
ATOM     25  C   UNL     1      33.413  -4.888  18.692  0.00  0.00    +0.072 C 
ENDBRANCH  19  20
ENDBRANCH  18  19
ENDBRANCH  17  18
ENDBRANCH  14  17
ENDBRANCH   2  11
BRANCH   1  26
ATOM     26  C   UNL     1      37.836  -0.750  16.018  0.00  0.00    -0.008 A 
ATOM     27  C   UNL     1      38.754  -1.819  15.999  0.00  0.00    -0.000 A 
ATOM     28  C   UNL     1      38.539  -2.931  15.182  0.00  0.00    +0.036 A 
ATOM     29  C   UNL     1      37.401  -2.998  14.370  0.00  0.00    +0.134 A 
ATOM     30  C   UNL     1      36.481  -1.947  14.383  0.00  0.00    +0.036 A 
ATOM     31  C   UNL     1      36.691  -0.834  15.201  0.00  0.00    -0.000 A 
BRANCH  29  32
ATOM     32  O   UNL     1      37.175  -4.102  13.552  0.00  0.00    -0.506 OA
ATOM     33  H   UNL     1      37.824  -4.879  13.520  0.00  0.00    +0.292 HD
ENDBRANCH  29  32
ENDBRANCH   1  26
BRANCH   7  34
ATOM     34  O   UNL     1      35.572   5.117  13.370  0.00  0.00    -0.505 OA
ATOM     35  H   UNL     1      34.693   5.527  13.078  0.00  0.00    +0.292 HD
ENDBRANCH   7  34
TORSDOF 8
ENDMDL
MODEL        7
REMARK  Name = CMP_1
REMARK  8 active torsions:
REMARK  status: ('A' for Active; 'I' for Inactive)
REMARK    1  A    between atoms: C_1  and  C_17
REMARK    2  A    between atoms: C_5  and  O_6
REMARK    3  A    between atoms: C_11  and  C_21
REMARK    4  A    between atoms: O_13  and  C_14
REMARK    5  A    between atoms: C_24  and  O_27
REMARK    6  A    between atoms: O_27  and  C_28
REMARK    7  A    between atoms: C_28  and  C_29
REMARK    8  A    between atoms: C_29  and  N_30
REMARK                            x       y       z     vdW  Elec       q    Type
REMARK                         _______ _______ _______ _____ _____    ______ ____
ROOT
ATOM      1  C   UNL     1      37.306  -3.836  18.458  0.00  0.00    +0.118 C 
ATOM      2  C   UNL     1      37.219  -2.812  19.605  0.00  0.00    +0.202 C 
ATOM      3  O   UNL     1      37.079  -1.484  19.113  0.00  0.00    -0.473 OA
ATOM      4  C   UNL     1      37.878  -0.937  18.107  0.00  0.00    +0.145 A 
ATOM      5  C   UNL     1      38.682  -1.738  17.267  0.00  0.00    +0.063 A 
ATOM      6  C   UNL     1      39.401  -1.137  16.224  0.00  0.00    +0.046 A 
ATOM      7  C   UNL     1      39.346   0.246  16.026  0.00  0.00    +0.134 A 
ATOM      8  C   UNL     1      38.558   1.038  16.869  0.00  0.00    +0.040 A 
ATOM      9  C   UNL     1      37.825   0.447  17.899  0.00  0.00    +0.041 A 
ATOM     10  S   UNL     1      38.793  -3.532  17.433  0.00  0.00    -0.103 S 
ENDROOT
BRANCH   2  11
ATOM     11  C   UNL     1      36.089  -3.139  20.558  0.00  0.00    +0.019 A 
ATOM     12  C   UNL     1      36.266  -4.065  21.601  0.00  0.00    +0.002 A 
ATOM     13  C   UNL     1      35.237  -4.310  22.514  0.00  0.00    +0.037 A 
ATOM     14  C   UNL     1      34.013  -3.624  22.404  0.00  0.00    +0.139 A 
ATOM     15  C   UNL     1      33.841  -2.697  21.371  0.00  0.00    +0.037 A 
ATOM     16  C   UNL     1      34.870  -2.450  20.459  0.00  0.00    +0.002 A 
BRANCH  14  17
ATOM     17  O   UNL     1      32.952  -3.830  23.298  0.00  0.00    -0.474 OA
BRANCH  17  18
ATOM     18  C   UNL     1      32.880  -3.268  24.606  0.00  0.00    +0.223 C 
BRANCH  18  19
ATOM     19  C   UNL     1      32.155  -1.923  24.548  0.00  0.00    +0.120 C 
BRANCH  19  20
ATOM     20  N   UNL     1      32.100  -1.301  25.888  0.00  0.00    -0.270 NA
ATOM     21  C   UNL     1      32.368   0.164  25.845  0.00  0.00    +0.072 C 
ATOM     22  C   UNL     1      33.772   0.533  26.347  0.00  0.00    +0.017 C 
ATOM     23  C   UNL     1      33.987   0.060  27.794  0.00  0.00    +0.003 C 
ATOM     24  C   UNL     1      33.214  -1.231  28.117  0.00  0.00    +0.017 C 
ATOM     25  C   UNL     1      32.949  -2.047  26.848  0.00  0.00    +0.072 C 
ENDBRANCH  19  20
ENDBRANCH  18  19
ENDBRANCH  17  18
ENDBRANCH  14  17
ENDBRANCH   2  11
BRANCH   1  26
ATOM     26  C   UNL     1      36.024  -3.982  17.649  0.00  0.00    -0.008 A 
ATOM     27  C   UNL     1      35.177  -5.077  17.909  0.00  0.00    -0.000 A 
ATOM     28  C   UNL     1      33.964  -5.220  17.230  0.00  0.00    +0.036 A 
ATOM     29  C   UNL     1      33.574  -4.269  16.281  0.00  0.00    +0.134 A 
ATOM     30  C   UNL     1      34.402  -3.176  16.017  0.00  0.00    +0.036 A 
ATOM     31  C   UNL     1      35.615  -3.028  16.696  0.00  0.00    -0.000 A 
BRANCH  29  32
ATOM     32  O   UNL     1      32.366  -4.399  15.598  0.00  0.00    -0.506 OA
ATOM     33  H   UNL     1      31.744  -5.181  15.768  0.00  0.00    +0.292 HD
ENDBRANCH  29  32
ENDBRANCH   1  26
BRANCH   7  34
ATOM     34  O   UNL     1      40.075   0.822  14.987  0.00  0.00    -0.505 OA
ATOM     35  H   UNL     1      40.055   1.820  14.816  0.00  0.00    +0.292 HD
ENDBRANCH   7  34
TORSDOF 8
ENDMDL
MODEL        8
REMARK  Name = CMP_1
REMARK  8 active torsions:
REMARK  status: ('A' for Active; 'I' for Inactive)
REMARK    1  A    between atoms: C_1  and  C_17
REMARK    2  A    between atoms: C_5  and  O_6
REMARK    3  A    between atoms: C_11  and  C_21
REMARK    4  A    between atoms: O_13  and  C_14
REMARK    5  A    between atoms: C_24  and  O_27
REMARK    6  A    between atoms: O_27  and  C_28
REMARK    7  A    between atoms: C_28  and  C_29
REMARK    8  A    between atoms: C_29  and  N_30
REMARK                            x       y       z     vdW  Elec       q    Type
REMARK                         _______ _______ _______ _____ _____    ______ ____
ROOT
ATOM      1  C   UNL     1      37.416   1.068  17.653  0.00  0.00    +0.118 C 
ATOM      2  C   UNL     1      35.887   1.134  17.826  0.00  0.00    +0.202 C 
ATOM      3  O   UNL     1      35.251   1.665  16.669  0.00  0.00    -0.473 OA
ATOM      4  C   UNL     1      35.661   2.831  16.019  0.00  0.00    +0.145 A 
ATOM      5  C   UNL     1      36.925   3.415  16.251  0.00  0.00    +0.063 A 
ATOM      6  C   UNL     1      37.310   4.540  15.509  0.00  0.00    +0.046 A 
ATOM      7  C   UNL     1      36.446   5.098  14.562  0.00  0.00    +0.134 A 
ATOM      8  C   UNL     1      35.189   4.524  14.344  0.00  0.00    +0.040 A 
ATOM      9  C   UNL     1      34.803   3.393  15.066  0.00  0.00    +0.041 A 
ATOM     10  S   UNL     1      38.114   2.747  17.434  0.00  0.00    -0.103 S 
ENDROOT
BRANCH   2  11
ATOM     11  C   UNL     1      35.307  -0.222  18.167  0.00  0.00    +0.019 A 
ATOM     12  C   UNL     1      35.665  -0.885  19.354  0.00  0.00    +0.002 A 
ATOM     13  C   UNL     1      35.074  -2.106  19.690  0.00  0.00    +0.037 A 
ATOM     14  C   UNL     1      34.106  -2.682  18.846  0.00  0.00    +0.139 A 
ATOM     15  C   UNL     1      33.745  -2.017  17.669  0.00  0.00    +0.037 A 
ATOM     16  C   UNL     1      34.334  -0.795  17.333  0.00  0.00    +0.002 A 
BRANCH  14  17
ATOM     17  O   UNL     1      33.479  -3.901  19.142  0.00  0.00    -0.474 OA
BRANCH  17  18
ATOM     18  C   UNL     1      32.863  -4.747  18.173  0.00  0.00    +0.223 C 
BRANCH  18  19
ATOM     19  C   UNL     1      33.773  -5.940  17.880  0.00  0.00    +0.120 C 
BRANCH  19  20
ATOM     20  N   UNL     1      34.295  -5.872  16.498  0.00  0.00    -0.270 NA
ATOM     21  C   UNL     1      35.757  -5.591  16.457  0.00  0.00    +0.072 C 
ATOM     22  C   UNL     1      36.080  -4.145  16.052  0.00  0.00    +0.017 C 
ATOM     23  C   UNL     1      35.499  -3.813  14.668  0.00  0.00    +0.003 C 
ATOM     24  C   UNL     1      34.193  -4.571  14.374  0.00  0.00    +0.017 C 
ATOM     25  C   UNL     1      33.474  -4.954  15.672  0.00  0.00    +0.072 C 
ENDBRANCH  19  20
ENDBRANCH  18  19
ENDBRANCH  17  18
ENDBRANCH  14  17
ENDBRANCH   2  11
BRANCH   1  26
ATOM     26  C   UNL     1      37.886   0.068  16.603  0.00  0.00    -0.008 A 
ATOM     27  C   UNL     1      38.710  -1.002  17.005  0.00  0.00    -0.000 A 
ATOM     28  C   UNL     1      39.118  -1.973  16.087  0.00  0.00    +0.036 A 
ATOM     29  C   UNL     1      38.707  -1.895  14.752  0.00  0.00    +0.134 A 
ATOM     30  C   UNL     1      37.886  -0.842  14.342  0.00  0.00    +0.036 A 
ATOM     31  C   UNL     1      37.474   0.130  15.258  0.00  0.00    -0.000 A 
BRANCH  29  32
ATOM     32  O   UNL     1      39.106  -2.858  13.828  0.00  0.00    -0.506 OA
ATOM     33  H   UNL     1      39.702  -3.633  14.095  0.00  0.00    +0.292 HD
ENDBRANCH  29  32
ENDBRANCH   1  26
BRANCH   7  34
ATOM     34  O   UNL     1      36.848   6.221  13.842  0.00  0.00    -0.505 OA
ATOM     35  H   UNL     1      36.246   6.649  13.148  0.00  0.00    +0.292 HD
ENDBRANCH   7  34
TORSDOF 8
ENDMDL
MODEL        9
REMARK  Name = CMP_1
REMARK  8 active torsions:
REMARK  status: ('A' for Active; 'I' for Inactive)
REMARK    1  A    between atoms: C_1  and  C_17
REMARK    2  A    between atoms: C_5  and  O_6
REMARK    3  A    between atoms: C_11  and  C_21
REMARK    4  A    between atoms: O_13  and  C_14
REMARK    5  A    between atoms: C_24  and  O_27
REMARK    6  A    between atoms: O_27  and  C_28
REMARK    7  A    between atoms: C_28  and  C_29
REMARK    8  A    between atoms: C_29  and  N_30
REMARK                            x       y       z     vdW  Elec       q    Type
REMARK                         _______ _______ _______ _____ _____    ______ ____
ROOT
ATOM      1  C   UNL     1      37.090  -0.856  14.639  0.00  0.00    +0.118 C 
ATOM      2  C   UNL     1      37.321  -2.378  14.647  0.00  0.00    +0.202 C 
ATOM      3  O   UNL     1      38.677  -2.702  14.934  0.00  0.00    -0.473 OA
ATOM      4  C   UNL     1      39.771  -2.102  14.306  0.00  0.00    +0.145 A 
ATOM      5  C   UNL     1      39.650  -0.907  13.564  0.00  0.00    +0.063 A 
ATOM      6  C   UNL     1      40.799  -0.314  13.024  0.00  0.00    +0.046 A 
ATOM      7  C   UNL     1      42.054  -0.905  13.193  0.00  0.00    +0.134 A 
ATOM      8  C   UNL     1      42.168  -2.097  13.918  0.00  0.00    +0.040 A 
ATOM      9  C   UNL     1      41.031  -2.688  14.475  0.00  0.00    +0.041 A 
ATOM     10  S   UNL     1      38.075  -0.060  13.317  0.00  0.00    -0.103 S 
ENDROOT
BRANCH   2  11
ATOM     11  C   UNL     1      36.399  -3.076  15.624  0.00  0.00    +0.019 A 
ATOM     12  C   UNL     1      35.008  -2.867  15.583  0.00  0.00    +0.002 A 
ATOM     13  C   UNL     1      34.161  -3.566  16.446  0.00  0.00    +0.037 A 
ATOM     14  C   UNL     1      34.690  -4.495  17.362  0.00  0.00    +0.139 A 
ATOM     15  C   UNL     1      36.072  -4.708  17.396  0.00  0.00    +0.037 A 
ATOM     16  C   UNL     1      36.920  -4.011  16.531  0.00  0.00    +0.002 A 
BRANCH  14  17
ATOM     17  O   UNL     1      33.881  -5.225  18.244  0.00  0.00    -0.474 OA
BRANCH  17  18
ATOM     18  C   UNL     1      34.293  -5.670  19.535  0.00  0.00    +0.223 C 
BRANCH  18  19
ATOM     19  C   UNL     1      33.651  -4.793  20.610  0.00  0.00    +0.120 C 
BRANCH  19  20
ATOM     20  N   UNL     1      34.627  -3.817  21.140  0.00  0.00    -0.270 NA
ATOM     21  C   UNL     1      34.340  -2.426  20.690  0.00  0.00    +0.072 C 
ATOM     22  C   UNL     1      35.296  -1.940  19.591  0.00  0.00    +0.017 C 
ATOM     23  C   UNL     1      36.758  -1.987  20.066  0.00  0.00    +0.003 C 
ATOM     24  C   UNL     1      37.022  -3.128  21.064  0.00  0.00    +0.017 C 
ATOM     25  C   UNL     1      36.015  -4.268  20.876  0.00  0.00    +0.072 C 
ENDBRANCH  19  20
ENDBRANCH  18  19
ENDBRANCH  17  18
ENDBRANCH  14  17
ENDBRANCH   2  11
BRANCH   1  26
ATOM     26  C   UNL     1      37.243  -0.191  16.002  0.00  0.00    -0.008 A 
ATOM     27  C   UNL     1      38.517  -0.154  16.601  0.00  0.00    -0.000 A 
ATOM     28  C   UNL     1      38.714   0.494  17.823  0.00  0.00    +0.036 A 
ATOM     29  C   UNL     1      37.642   1.120  18.467  0.00  0.00    +0.134 A 
ATOM     30  C   UNL     1      36.374   1.095  17.882  0.00  0.00    +0.036 A 
ATOM     31  C   UNL     1      36.173   0.450  16.658  0.00  0.00    -0.000 A 
BRANCH  29  32
ATOM     32  O   UNL     1      37.825   1.771  19.685  0.00  0.00    -0.506 OA
ATOM     33  H   UNL     1      38.733   1.805  20.135  0.00  0.00    +0.292 HD
ENDBRANCH  29  32
ENDBRANCH   1  26
BRANCH   7  34
ATOM     34  O   UNL     1      43.181  -0.300  12.640  0.00  0.00    -0.505 OA
ATOM     35  H   UNL     1      44.104  -0.704  12.747  0.00  0.00    +0.292 HD
ENDBRANCH   7  34
TORSDOF 8
ENDMDL
MODEL       10
REMARK  Name = CMP_1
REMARK  8 active torsions:
REMARK  status: ('A' for Active; 'I' for Inactive)
REMARK    1  A    between atoms: C_1  and  C_17
REMARK    2  A    between atoms: C_5  and  O_6
REMARK    3  A    between atoms: C_11  and  C_21
REMARK    4  A    between atoms: O_13  and  C_14
REMARK    5  A    between atoms: C_24  and  O_27
REMARK    6  A    between atoms: O_27  and  C_28
REMARK    7  A    between atoms: C_28  and  C_29
REMARK    8  A    between atoms: C_29  and  N_30
REMARK                            x       y       z     vdW  Elec       q    Type
REMARK                         _______ _______ _______ _____ _____    ______ ____
ROOT
ATOM      1  C   UNL     1      35.571  -1.890  16.414  0.00  0.00    +0.118 C 
ATOM      2  C   UNL     1      35.347  -1.161  17.752  0.00  0.00    +0.202 C 
ATOM      3  O   UNL     1      35.592  -2.016  18.863  0.00  0.00    -0.473 OA
ATOM      4  C   UNL     1      35.072  -3.307  18.983  0.00  0.00    +0.145 A 
ATOM      5  C   UNL     1      34.522  -4.000  17.884  0.00  0.00    +0.063 A 
ATOM      6  C   UNL     1      34.088  -5.322  18.052  0.00  0.00    +0.046 A 
ATOM      7  C   UNL     1      34.176  -5.948  19.299  0.00  0.00    +0.134 A 
ATOM      8  C   UNL     1      34.710  -5.252  20.389  0.00  0.00    +0.040 A 
ATOM      9  C   UNL     1      35.160  -3.940  20.228  0.00  0.00    +0.041 A 
ATOM     10  S   UNL     1      34.395  -3.281  16.232  0.00  0.00    -0.103 S 
ENDROOT
BRANCH   2  11
ATOM     11  C   UNL     1      36.198   0.087  17.854  0.00  0.00    +0.019 A 
ATOM     12  C   UNL     1      35.949   1.203  17.034  0.00  0.00    +0.002 A 
ATOM     13  C   UNL     1      36.698   2.373  17.183  0.00  0.00    +0.037 A 
ATOM     14  C   UNL     1      37.706   2.450  18.162  0.00  0.00    +0.139 A 
ATOM     15  C   UNL     1      37.947   1.343  18.982  0.00  0.00    +0.037 A 
ATOM     16  C   UNL     1      37.197   0.173  18.836  0.00  0.00    +0.002 A 
BRANCH  14  17
ATOM     17  O   UNL     1      38.481   3.603  18.354  0.00  0.00    -0.474 OA
BRANCH  17  18
ATOM     18  C   UNL     1      38.633   4.643  17.390  0.00  0.00    +0.223 C 
BRANCH  18  19
ATOM     19  C   UNL     1      38.506   6.003  18.077  0.00  0.00    +0.120 C 
BRANCH  19  20
ATOM     20  N   UNL     1      39.483   6.124  19.180  0.00  0.00    -0.270 NA
ATOM     21  C   UNL     1      39.171   7.261  20.091  0.00  0.00    +0.072 C 
ATOM     22  C   UNL     1      40.098   8.468  19.886  0.00  0.00    +0.017 C 
ATOM     23  C   UNL     1      41.570   8.081  20.105  0.00  0.00    +0.003 C 
ATOM     24  C   UNL     1      41.867   6.626  19.705  0.00  0.00    +0.017 C 
ATOM     25  C   UNL     1      40.870   6.128  18.655  0.00  0.00    +0.072 C 
ENDBRANCH  19  20
ENDBRANCH  18  19
ENDBRANCH  17  18
ENDBRANCH  14  17
ENDBRANCH   2  11
BRANCH   1  26
ATOM     26  C   UNL     1      37.021  -2.274  16.144  0.00  0.00    -0.008 A 
ATOM     27  C   UNL     1      37.737  -1.571  15.155  0.00  0.00    -0.000 A 
ATOM     28  C   UNL     1      39.084  -1.852  14.914  0.00  0.00    +0.036 A 
ATOM     29  C   UNL     1      39.741  -2.838  15.657  0.00  0.00    +0.134 A 
ATOM     30  C   UNL     1      39.043  -3.540  16.643  0.00  0.00    +0.036 A 
ATOM     31  C   UNL     1      37.696  -3.260  16.890  0.00  0.00    -0.000 A 
BRANCH  29  32
ATOM     32  O   UNL     1      41.084  -3.127  15.427  0.00  0.00    -0.506 OA
ATOM     33  H   UNL     1      41.617  -2.636  14.718  0.00  0.00    +0.292 HD
ENDBRANCH  29  32
ENDBRANCH   1  26
BRANCH   7  34
ATOM     34  O   UNL     1      33.731  -7.261  19.443  0.00  0.00    -0.505 OA
ATOM     35  H   UNL     1      33.782  -7.742  20.333  0.00  0.00    +0.292 HD
ENDBRANCH   7  34
TORSDOF 8
ENDMDL
MODEL        2
REMARK  Name = CMP_1
REMARK  8 active torsions:
REMARK  status: ('A' for Active; 'I' for Inactive)
REMARK    1  A    between atoms: C_1  and  C_17
REMARK    2  A    between atoms: C_5  and  O_6
REMARK    3  A    between atoms: C_11  and  C_21
REMARK    4  A    between atoms: O_13  and  C_14
REMARK    5  A    between atoms: C_24  and  O_27
REMARK    6  A    between atoms: O_27  and  C_28
REMARK    7  A    between atoms: C_28  and  C_29
REMARK    8  A    between atoms: C_29  and  N_30
REMARK                            x       y       z     vdW  Elec       q    Type
REMARK                         _______ _______ _______ _____ _____    ______ ____
ROOT
ATOM      1  C   UNL     1      31.209  -0.605  27.639  0.00  0.00    +0.118 C 
ATOM      2  C   UNL     1      31.248  -2.095  27.206  0.00  0.00    +0.202 C 
ATOM      3  O   UNL     1      29.952  -2.703  27.222  0.00  0.00    -0.473 OA
ATOM      4  C   UNL     1      28.723  -2.027  27.268  0.00  0.00    +0.145 A 
ATOM      5  C   UNL     1      28.628  -0.632  27.091  0.00  0.00    +0.063 A 
ATOM      6  C   UNL     1      27.400   0.010  27.261  0.00  0.00    +0.046 A 
ATOM      7  C   UNL     1      26.252  -0.728  27.565  0.00  0.00    +0.134 A 
ATOM      8  C   UNL     1      26.336  -2.119  27.703  0.00  0.00    +0.040 A 
ATOM      9  C   UNL     1      27.565  -2.764  27.551  0.00  0.00    +0.041 A 
ATOM     10  S   UNL     1      30.046   0.342  26.595  0.00  0.00    -0.103 S 
ENDROOT
BRANCH   2  11
ATOM     11  C   UNL     1      31.907  -2.310  25.858  0.00  0.00    +0.019 A 
ATOM     12  C   UNL     1      33.008  -3.171  25.706  0.00  0.00    +0.002 A 
ATOM     13  C   UNL     1      33.546  -3.421  24.440  0.00  0.00    +0.037 A 
ATOM     14  C   UNL     1      32.983  -2.819  23.295  0.00  0.00    +0.139 A 
ATOM     15  C   UNL     1      31.910  -1.934  23.454  0.00  0.00    +0.037 A 
ATOM     16  C   UNL     1      31.372  -1.687  24.718  0.00  0.00    +0.002 A 
BRANCH  14  17
ATOM     17  O   UNL     1      33.430  -3.086  21.990  0.00  0.00    -0.474 OA
BRANCH  17  18
ATOM     18  C   UNL     1      33.493  -4.381  21.391  0.00  0.00    +0.223 C 
BRANCH  18  19
ATOM     19  C   UNL     1      33.413  -4.285  19.860  0.00  0.00    +0.120 C 
BRANCH  19  20
ATOM     20  N   UNL     1      32.824  -3.001  19.410  0.00  0.00    -0.270 NA
ATOM     21  C   UNL     1      33.601  -2.343  18.332  0.00  0.00    +0.072 C 
ATOM     22  C   UNL     1      33.567  -3.138  17.012  0.00  0.00    +0.017 C 
ATOM     23  C   UNL     1      32.182  -3.755  16.730  0.00  0.00    +0.003 C 
ATOM     24  C   UNL     1      31.080  -3.079  17.547  0.00  0.00    +0.017 C 
ATOM     25  C   UNL     1      31.380  -3.137  19.063  0.00  0.00    +0.072 C 
ENDBRANCH  19  20
ENDBRANCH  18  19
ENDBRANCH  17  18
ENDBRANCH  14  17
ENDBRANCH   2  11
BRANCH   1  26
ATOM     26  C   UNL     1      32.591   0.019  27.643  0.00  0.00    -0.008 A 
ATOM     27  C   UNL     1      33.515  -0.359  28.636  0.00  0.00    -0.000 A 
ATOM     28  C   UNL     1      34.815   0.155  28.634  0.00  0.00    +0.036 A 
ATOM     29  C   UNL     1      35.214   1.046  27.628  0.00  0.00    +0.134 A 
ATOM     30  C   UNL     1      34.307   1.416  26.628  0.00  0.00    +0.036 A 
ATOM     31  C   UNL     1      33.008   0.902  26.625  0.00  0.00    -0.000 A 
BRANCH  29  32
ATOM     32  O   UNL     1      36.509   1.561  27.605  0.00  0.00    -0.506 OA
ATOM     33  H   UNL     1      37.212   1.253  28.267  0.00  0.00    +0.292 HD
ENDBRANCH  29  32
ENDBRANCH   1  26
BRANCH   7  34
ATOM     34  O   UNL     1      25.034  -0.072  27.717  0.00  0.00    -0.505 OA
ATOM     35  H   UNL     1      24.191  -0.576  27.976  0.00  0.00    +0.292 HD
ENDBRANCH   7  34
TORSDOF 8
ENDMDL
MODEL        3
REMARK  Name = CMP_1
REMARK  8 active torsions:
REMARK  status: ('A' for Active; 'I' for Inactive)
REMARK    1  A    between atoms: C_1  and  C_17
REMARK    2  A    between atoms: C_5  and  O_6
REMARK    3  A    between atoms: C_11  and  C_21
REMARK    4  A    between atoms: O_13  and  C_14
REMARK    5  A    between atoms: C_24  and  O_27
REMARK    6  A    between atoms: O_27  and  C_28
REMARK    7  A    between atoms: C_28  and  C_29
REMARK    8  A    between atoms: C_29  and  N_30
REMARK                            x       y       z     vdW  Elec       q    Type
REMARK                         _______ _______ _______ _____ _____    ______ ____
ROOT
ATOM      1  C   UNL     1      31.225  -0.668  27.470  0.00  0.00    +0.118 C 
ATOM      2  C   UNL     1      31.255  -2.157  27.032  0.00  0.00    +0.202 C 
ATOM      3  O   UNL     1      29.959  -2.765  27.071  0.00  0.00    -0.473 OA
ATOM      4  C   UNL     1      28.731  -2.090  27.143  0.00  0.00    +0.145 A 
ATOM      5  C   UNL     1      28.634  -0.694  26.973  0.00  0.00    +0.063 A 
ATOM      6  C   UNL     1      27.409  -0.053  27.168  0.00  0.00    +0.046 A 
ATOM      7  C   UNL     1      26.267  -0.791  27.493  0.00  0.00    +0.134 A 
ATOM      8  C   UNL     1      26.354  -2.183  27.625  0.00  0.00    +0.040 A 
ATOM      9  C   UNL     1      27.580  -2.827  27.447  0.00  0.00    +0.041 A 
ATOM     10  S   UNL     1      30.041   0.282  26.451  0.00  0.00    -0.103 S 
ENDROOT
BRANCH   2  11
ATOM     11  C   UNL     1      31.887  -2.368  25.670  0.00  0.00    +0.019 A 
ATOM     12  C   UNL     1      32.959  -3.260  25.487  0.00  0.00    +0.002 A 
ATOM     13  C   UNL     1      33.471  -3.503  24.208  0.00  0.00    +0.037 A 
ATOM     14  C   UNL     1      32.910  -2.863  23.083  0.00  0.00    +0.139 A 
ATOM     15  C   UNL     1      31.867  -1.949  23.273  0.00  0.00    +0.037 A 
ATOM     16  C   UNL     1      31.356  -1.708  24.549  0.00  0.00    +0.002 A 
BRANCH  14  17
ATOM     17  O   UNL     1      33.330  -3.121  21.767  0.00  0.00    -0.474 OA
BRANCH  17  18
ATOM     18  C   UNL     1      34.459  -3.917  21.405  0.00  0.00    +0.223 C 
BRANCH  18  19
ATOM     19  C   UNL     1      35.709  -3.046  21.210  0.00  0.00    +0.120 C 
BRANCH  19  20
ATOM     20  N   UNL     1      36.275  -3.175  19.846  0.00  0.00    -0.270 NA
ATOM     21  C   UNL     1      35.325  -2.787  18.777  0.00  0.00    +0.072 C 
ATOM     22  C   UNL     1      34.998  -1.281  18.795  0.00  0.00    +0.017 C 
ATOM     23  C   UNL     1      36.231  -0.413  19.115  0.00  0.00    +0.003 C 
ATOM     24  C   UNL     1      37.538  -1.174  18.887  0.00  0.00    +0.017 C 
ATOM     25  C   UNL     1      37.587  -2.479  19.715  0.00  0.00    +0.072 C 
ENDBRANCH  19  20
ENDBRANCH  18  19
ENDBRANCH  17  18
ENDBRANCH  14  17
ENDBRANCH   2  11
BRANCH   1  26
ATOM     26  C   UNL     1      32.606  -0.044  27.448  0.00  0.00    -0.008 A 
ATOM     27  C   UNL     1      33.579  -0.490  28.363  0.00  0.00    -0.000 A 
ATOM     28  C   UNL     1      34.877   0.024  28.332  0.00  0.00    +0.036 A 
ATOM     29  C   UNL     1      35.228   0.986  27.375  0.00  0.00    +0.134 A 
ATOM     30  C   UNL     1      34.272   1.425  26.450  0.00  0.00    +0.036 A 
ATOM     31  C   UNL     1      32.973   0.910  26.477  0.00  0.00    -0.000 A 
BRANCH  29  32
ATOM     32  O   UNL     1      36.520   1.502  27.323  0.00  0.00    -0.506 OA
ATOM     33  H   UNL     1      37.256   1.149  27.925  0.00  0.00    +0.292 HD
ENDBRANCH  29  32
ENDBRANCH   1  26
BRANCH   7  34
ATOM     34  O   UNL     1      25.052  -0.137  27.670  0.00  0.00    -0.505 OA
ATOM     35  H   UNL     1      24.215  -0.641  27.944  0.00  0.00    +0.292 HD
ENDBRANCH   7  34
TORSDOF 8
ENDMDL
MODEL        4
REMARK  Name = CMP_1
REMARK  8 active torsions:
REMARK  status: ('A' for Active; 'I' for Inactive)
REMARK    1  A    between atoms: C_1  and  C_17
REMARK    2  A    between atoms: C_5  and  O_6
REMARK    3  A    between atoms: C_11  and  C_21
REMARK    4  A    between atoms: O_13  and  C_14
REMARK    5  A    between atoms: C_24  and  O_27
REMARK    6  A    between atoms: O_27  and  C_28
REMARK    7  A    between atoms: C_28  and  C_29
REMARK    8  A    between atoms: C_29  and  N_30
REMARK                            x       y       z     vdW  Elec       q    Type
REMARK                         _______ _______ _______ _____ _____    ______ ____
ROOT
ATOM      1  C   UNL     1      31.335  -0.726  27.600  0.00  0.00    +0.118 C 
ATOM      2  C   UNL     1      31.322  -2.199  27.109  0.00  0.00    +0.202 C 
ATOM      3  O   UNL     1      30.009  -2.769  27.122  0.00  0.00    -0.473 OA
ATOM      4  C   UNL     1      28.801  -2.060  27.215  0.00  0.00    +0.145 A 
ATOM      5  C   UNL     1      28.746  -0.657  27.094  0.00  0.00    +0.063 A 
ATOM      6  C   UNL     1      27.541   0.014  27.309  0.00  0.00    +0.046 A 
ATOM      7  C   UNL     1      26.376  -0.701  27.603  0.00  0.00    +0.134 A 
ATOM      8  C   UNL     1      26.421  -2.099  27.686  0.00  0.00    +0.040 A 
ATOM      9  C   UNL     1      27.627  -2.773  27.488  0.00  0.00    +0.041 A 
ATOM     10  S   UNL     1      30.184   0.295  26.612  0.00  0.00    -0.103 S 
ENDROOT
BRANCH   2  11
ATOM     11  C   UNL     1      31.954  -2.380  25.742  0.00  0.00    +0.019 A 
ATOM     12  C   UNL     1      33.046  -3.243  25.545  0.00  0.00    +0.002 A 
ATOM     13  C   UNL     1      33.559  -3.460  24.262  0.00  0.00    +0.037 A 
ATOM     14  C   UNL     1      32.976  -2.823  23.146  0.00  0.00    +0.139 A 
ATOM     15  C   UNL     1      31.912  -1.938  23.350  0.00  0.00    +0.037 A 
ATOM     16  C   UNL     1      31.401  -1.723  24.631  0.00  0.00    +0.002 A 
BRANCH  14  17
ATOM     17  O   UNL     1      33.397  -3.057  21.826  0.00  0.00    -0.474 OA
BRANCH  17  18
ATOM     18  C   UNL     1      33.902  -4.298  21.331  0.00  0.00    +0.223 C 
BRANCH  18  19
ATOM     19  C   UNL     1      35.102  -4.071  20.398  0.00  0.00    +0.120 C 
BRANCH  19  20
ATOM     20  N   UNL     1      36.389  -4.419  21.047  0.00  0.00    -0.270 NA
ATOM     21  C   UNL     1      36.470  -5.837  21.469  0.00  0.00    +0.072 C 
ATOM     22  C   UNL     1      36.497  -6.808  20.272  0.00  0.00    +0.017 C 
ATOM     23  C   UNL     1      37.347  -6.278  19.100  0.00  0.00    +0.003 C 
ATOM     24  C   UNL     1      38.311  -5.178  19.548  0.00  0.00    +0.017 C 
ATOM     25  C   UNL     1      37.561  -4.006  20.223  0.00  0.00    +0.072 C 
ENDBRANCH  19  20
ENDBRANCH  18  19
ENDBRANCH  17  18
ENDBRANCH  14  17
ENDBRANCH   2  11
BRANCH   1  26
ATOM     26  C   UNL     1      32.735  -0.144  27.605  0.00  0.00    -0.008 A 
ATOM     27  C   UNL     1      33.099   0.784  26.610  0.00  0.00    -0.000 A 
ATOM     28  C   UNL     1      34.362   1.381  26.620  0.00  0.00    +0.036 A 
ATOM     29  C   UNL     1      35.278   1.067  27.634  0.00  0.00    +0.134 A 
ATOM     30  C   UNL     1      34.920   0.157  28.636  0.00  0.00    +0.036 A 
ATOM     31  C   UNL     1      33.656  -0.439  28.631  0.00  0.00    -0.000 A 
BRANCH  29  32
ATOM     32  O   UNL     1      36.538   1.660  27.665  0.00  0.00    -0.506 OA
ATOM     33  H   UNL     1      36.800   2.381  27.001  0.00  0.00    +0.292 HD
ENDBRANCH  29  32
ENDBRANCH   1  26
BRANCH   7  34
ATOM     34  O   UNL     1      25.180  -0.017  27.801  0.00  0.00    -0.505 OA
ATOM     35  H   UNL     1      24.327  -0.505  28.053  0.00  0.00    +0.292 HD
ENDBRANCH   7  34
TORSDOF 8
ENDMDL
MODEL        5
REMARK  Name = CMP_1
REMARK  8 active torsions:
REMARK  status: ('A' for Active; 'I' for Inactive)
REMARK    1  A    between atoms: C_1  and  C_17
REMARK    2  A    between atoms: C_5  and  O_6
REMARK    3  A    between atoms: C_11  and  C_21
REMARK    4  A    between atoms: O_13  and  C_14
REMARK    5  A    between atoms: C_24  and  O_27
REMARK    6  A    between atoms: O_27  and  C_28
REMARK    7  A    between atoms: C_28  and  C_29
REMARK    8  A    between atoms: C_29  and  N_30
REMARK                            x       y       z     vdW  Elec       q    Type
REMARK                         _______ _______ _______ _____ _____    ______ ____
ROOT
ATOM      1  C   UNL     1      36.733  -2.381  17.625  0.00  0.00    +0.118 C 
ATOM      2  C   UNL     1      37.236  -2.180  19.080  0.00  0.00    +0.202 C 
ATOM      3  O   UNL     1      37.615  -0.825  19.346  0.00  0.00    -0.473 OA
ATOM      4  C   UNL     1      37.279   0.294  18.570  0.00  0.00    +0.145 A 
ATOM      5  C   UNL     1      36.332   0.225  17.528  0.00  0.00    +0.063 A 
ATOM      6  C   UNL     1      36.116   1.335  16.709  0.00  0.00    +0.046 A 
ATOM      7  C   UNL     1      36.803   2.530  16.941  0.00  0.00    +0.134 A 
ATOM      8  C   UNL     1      37.716   2.613  18.000  0.00  0.00    +0.040 A 
ATOM      9  C   UNL     1      37.948   1.501  18.811  0.00  0.00    +0.041 A 
ATOM     10  S   UNL     1      35.348  -1.246  17.258  0.00  0.00    -0.103 S 
ENDROOT
BRANCH   2  11
ATOM     11  C   UNL     1      36.250  -2.660  20.127  0.00  0.00    +0.019 A 
ATOM     12  C   UNL     1      34.934  -2.169  20.177  0.00  0.00    +0.002 A 
ATOM     13  C   UNL     1      34.016  -2.687  21.097  0.00  0.00    +0.037 A 
ATOM     14  C   UNL     1      34.398  -3.719  21.980  0.00  0.00    +0.139 A 
ATOM     15  C   UNL     1      35.719  -4.180  21.951  0.00  0.00    +0.037 A 
ATOM     16  C   UNL     1      36.634  -3.663  21.032  0.00  0.00    +0.002 A 
BRANCH  14  17
ATOM     17  O   UNL     1      33.504  -4.331  22.875  0.00  0.00    -0.474 OA
BRANCH  17  18
ATOM     18  C   UNL     1      32.630  -3.638  23.766  0.00  0.00    +0.223 C 
BRANCH  18  19
ATOM     19  C   UNL     1      33.342  -3.301  25.085  0.00  0.00    +0.120 C 
BRANCH  19  20
ATOM     20  N   UNL     1      32.394  -2.862  26.137  0.00  0.00    -0.270 NA
ATOM     21  C   UNL     1      33.016  -1.995  27.165  0.00  0.00    +0.072 C 
ATOM     22  C   UNL     1      33.449  -0.627  26.599  0.00  0.00    +0.017 C 
ATOM     23  C   UNL     1      32.433  -0.058  25.588  0.00  0.00    +0.003 C 
ATOM     24  C   UNL     1      31.062  -0.723  25.723  0.00  0.00    +0.017 C 
ATOM     25  C   UNL     1      31.157  -2.258  25.561  0.00  0.00    +0.072 C 
ENDBRANCH  19  20
ENDBRANCH  18  19
ENDBRANCH  17  18
ENDBRANCH  14  17
ENDBRANCH   2  11
BRANCH   1  26
ATOM     26  C   UNL     1      36.360  -3.824  17.350  0.00  0.00    -0.008 A 
ATOM     27  C   UNL     1      37.349  -4.822  17.445  0.00  0.00    -0.000 A 
ATOM     28  C   UNL     1      37.026  -6.168  17.252  0.00  0.00    +0.036 A 
ATOM     29  C   UNL     1      35.703  -6.538  16.974  0.00  0.00    +0.134 A 
ATOM     30  C   UNL     1      34.709  -5.555  16.893  0.00  0.00    +0.036 A 
ATOM     31  C   UNL     1      35.028  -4.209  17.088  0.00  0.00    -0.000 A 
BRANCH  29  32
ATOM     32  O   UNL     1      35.361  -7.876  16.789  0.00  0.00    -0.506 OA
ATOM     33  H   UNL     1      36.040  -8.618  16.919  0.00  0.00    +0.292 HD
ENDBRANCH  29  32
ENDBRANCH   1  26
BRANCH   7  34
ATOM     34  O   UNL     1      36.565   3.631  16.123  0.00  0.00    -0.505 OA
ATOM     35  H   UNL     1      37.076   4.500  16.243  0.00  0.00    +0.292 HD
ENDBRANCH   7  34
TORSDOF 8
ENDMDL
MODEL        6
REMARK  Name = CMP_1
REMARK  8 active torsions:
REMARK  status: ('A' for Active; 'I' for Inactive)
REMARK    1  A    between atoms: C_1  and  C_17
REMARK    2  A    between atoms: C_5  and  O_6
REMARK    3  A    between atoms: C_11  and  C_21
REMARK    4  A    between atoms: O_13  and  C_14
REMARK    5  A    between atoms: C_24  and  O_27
REMARK    6  A    between atoms: O_27  and  C_28
REMARK    7  A    between atoms: C_28  and  C_29
REMARK    8  A    between atoms: C_29  and  N_30
REMARK                            x       y       z     vdW  Elec       q    Type
REMARK                         _______ _______ _______ _____ _____    ______ ____
ROOT
ATOM      1  C   UNL     1      34.111  -4.597  19.160  0.00  0.00    +0.118 C 
ATOM      2  C   UNL     1      34.418  -3.618  17.995  0.00  0.00    +0.202 C 
ATOM      3  O   UNL     1      33.242  -2.966  17.504  0.00  0.00    -0.473 OA
ATOM      4  C   UNL     1      32.001  -2.898  18.157  0.00  0.00    +0.145 A 
ATOM      5  C   UNL     1      31.838  -3.301  19.498  0.00  0.00    +0.063 A 
ATOM      6  C   UNL     1      30.564  -3.324  20.068  0.00  0.00    +0.046 A 
ATOM      7  C   UNL     1      29.451  -2.910  19.330  0.00  0.00    +0.134 A 
ATOM      8  C   UNL     1      29.616  -2.473  18.009  0.00  0.00    +0.040 A 
ATOM      9  C   UNL     1      30.886  -2.464  17.429  0.00  0.00    +0.041 A 
ATOM     10  S   UNL     1      33.244  -3.735  20.518  0.00  0.00    -0.103 S 
ENDROOT
BRANCH   2  11
ATOM     11  C   UNL     1      35.477  -2.589  18.340  0.00  0.00    +0.019 A 
ATOM     12  C   UNL     1      36.800  -2.711  17.879  0.00  0.00    +0.002 A 
ATOM     13  C   UNL     1      37.739  -1.708  18.138  0.00  0.00    +0.037 A 
ATOM     14  C   UNL     1      37.366  -0.552  18.857  0.00  0.00    +0.139 A 
ATOM     15  C   UNL     1      36.058  -0.451  19.345  0.00  0.00    +0.037 A 
ATOM     16  C   UNL     1      35.122  -1.452  19.085  0.00  0.00    +0.002 A 
BRANCH  14  17
ATOM     17  O   UNL     1      38.242   0.523  19.086  0.00  0.00    -0.474 OA
BRANCH  17  18
ATOM     18  C   UNL     1      38.137   1.812  18.480  0.00  0.00    +0.223 C 
BRANCH  18  19
ATOM     19  C   UNL     1      38.463   1.743  16.980  0.00  0.00    +0.120 C 
BRANCH  19  20
ATOM     20  N   UNL     1      37.467   2.471  16.157  0.00  0.00    -0.270 NA
ATOM     21  C   UNL     1      37.315   1.916  14.791  0.00  0.00    +0.072 C 
ATOM     22  C   UNL     1      36.690   0.507  14.793  0.00  0.00    +0.017 C 
ATOM     23  C   UNL     1      35.567   0.360  15.840  0.00  0.00    +0.003 C 
ATOM     24  C   UNL     1      35.031   1.718  16.294  0.00  0.00    +0.017 C 
ATOM     25  C   UNL     1      36.158   2.615  16.858  0.00  0.00    +0.072 C 
ENDBRANCH  19  20
ENDBRANCH  18  19
ENDBRANCH  17  18
ENDBRANCH  14  17
ENDBRANCH   2  11
BRANCH   1  26
ATOM     26  C   UNL     1      35.361  -5.299  19.652  0.00  0.00    -0.008 A 
ATOM     27  C   UNL     1      35.735  -5.175  21.004  0.00  0.00    -0.000 A 
ATOM     28  C   UNL     1      36.850  -5.855  21.501  0.00  0.00    +0.036 A 
ATOM     29  C   UNL     1      37.602  -6.681  20.655  0.00  0.00    +0.134 A 
ATOM     30  C   UNL     1      37.230  -6.823  19.312  0.00  0.00    +0.036 A 
ATOM     31  C   UNL     1      36.114  -6.147  18.812  0.00  0.00    -0.000 A 
BRANCH  29  32
ATOM     32  O   UNL     1      38.711  -7.374  21.136  0.00  0.00    -0.506 OA
ATOM     33  H   UNL     1      38.961  -7.356  22.119  0.00  0.00    +0.292 HD
ENDBRANCH  29  32
ENDBRANCH   1  26
BRANCH   7  34
ATOM     34  O   UNL     1      28.190  -2.927  19.919  0.00  0.00    -0.505 OA
ATOM     35  H   UNL     1      27.359  -2.669  19.396  0.00  0.00    +0.292 HD
ENDBRANCH   7  34
TORSDOF 8
ENDMDL
MODEL        7
REMARK  Name = CMP_1
REMARK  8 active torsions:
REMARK  status: ('A' for Active; 'I' for Inactive)
REMARK    1  A    between atoms: C_1  and  C_17
REMARK    2  A    between atoms: C_5  and  O_6
REMARK    3  A    between atoms: C_11  and  C_21
REMARK    4  A    between atoms: O_13  and  C_14
REMARK    5  A    between atoms: C_24  and  O_27
REMARK    6  A    between atoms: O_27  and  C_28
REMARK    7  A    between atoms: C_28  and  C_29
REMARK    8  A    between atoms: C_29  and  N_30
REMARK                            x       y       z     vdW  Elec       q    Type
REMARK                         _______ _______ _______ _____ _____    ______ ____
ROOT
ATOM      1  C   UNL     1      36.611  -2.458  17.667  0.00  0.00    +0.118 C 
ATOM      2  C   UNL     1      37.182  -2.257  19.096  0.00  0.00    +0.202 C 
ATOM      3  O   UNL     1      37.607  -0.910  19.332  0.00  0.00    -0.473 OA
ATOM      4  C   UNL     1      37.267   0.211  18.558  0.00  0.00    +0.145 A 
ATOM      5  C   UNL     1      36.275   0.157  17.558  0.00  0.00    +0.063 A 
ATOM      6  C   UNL     1      36.053   1.264  16.738  0.00  0.00    +0.046 A 
ATOM      7  C   UNL     1      36.781   2.443  16.927  0.00  0.00    +0.134 A 
ATOM      8  C   UNL     1      37.740   2.511  17.945  0.00  0.00    +0.040 A 
ATOM      9  C   UNL     1      37.978   1.401  18.758  0.00  0.00    +0.041 A 
ATOM     10  S   UNL     1      35.242  -1.290  17.347  0.00  0.00    -0.103 S 
ENDROOT
BRANCH   2  11
ATOM     11  C   UNL     1      36.229  -2.700  20.190  0.00  0.00    +0.019 A 
ATOM     12  C   UNL     1      34.940  -2.151  20.309  0.00  0.00    +0.002 A 
ATOM     13  C   UNL     1      34.048  -2.634  21.272  0.00  0.00    +0.037 A 
ATOM     14  C   UNL     1      34.428  -3.689  22.129  0.00  0.00    +0.139 A 
ATOM     15  C   UNL     1      35.723  -4.208  22.031  0.00  0.00    +0.037 A 
ATOM     16  C   UNL     1      36.613  -3.726  21.069  0.00  0.00    +0.002 A 
BRANCH  14  17
ATOM     17  O   UNL     1      33.554  -4.267  23.065  0.00  0.00    -0.474 OA
BRANCH  17  18
ATOM     18  C   UNL     1      32.417  -3.620  23.638  0.00  0.00    +0.223 C 
BRANCH  18  19
ATOM     19  C   UNL     1      32.686  -3.226  25.099  0.00  0.00    +0.120 C 
BRANCH  19  20
ATOM     20  N   UNL     1      31.771  -2.158  25.568  0.00  0.00    -0.270 NA
ATOM     21  C   UNL     1      31.770  -1.990  27.041  0.00  0.00    +0.072 C 
ATOM     22  C   UNL     1      33.113  -1.453  27.575  0.00  0.00    +0.017 C 
ATOM     23  C   UNL     1      33.729  -0.382  26.653  0.00  0.00    +0.003 C 
ATOM     24  C   UNL     1      32.690   0.220  25.706  0.00  0.00    +0.017 C 
ATOM     25  C   UNL     1      32.000  -0.870  24.853  0.00  0.00    +0.072 C 
ENDBRANCH  19  20
ENDBRANCH  18  19
ENDBRANCH  17  18
ENDBRANCH  14  17
ENDBRANCH   2  11
BRANCH   1  26
ATOM     26  C   UNL     1      36.189  -3.893  17.424  0.00  0.00    -0.008 A 
ATOM     27  C   UNL     1      34.835  -4.179  17.163  0.00  0.00    -0.000 A 
ATOM     28  C   UNL     1      34.423  -5.484  16.879  0.00  0.00    +0.036 A 
ATOM     29  C   UNL     1      35.364  -6.523  16.839  0.00  0.00    +0.134 A 
ATOM     30  C   UNL     1      36.715  -6.246  17.082  0.00  0.00    +0.036 A 
ATOM     31  C   UNL     1      37.130  -4.942  17.364  0.00  0.00    -0.000 A 
BRANCH  29  32
ATOM     32  O   UNL     1      34.972  -7.828  16.548  0.00  0.00    -0.506 OA
ATOM     33  H   UNL     1      34.017  -8.049  16.291  0.00  0.00    +0.292 HD
ENDBRANCH  29  32
ENDBRANCH   1  26
BRANCH   7  34
ATOM     34  O   UNL     1      36.536   3.541  16.108  0.00  0.00    -0.505 OA
ATOM     35  H   UNL     1      37.075   4.397  16.197  0.00  0.00    +0.292 HD
ENDBRANCH   7  34
TORSDOF 8
ENDMDL
MODEL        8
REMARK  Name = CMP_1
REMARK  8 active torsions:
REMARK  status: ('A' for Active; 'I' for Inactive)
REMARK    1  A    between atoms: C_1  and  C_17
REMARK    2  A    between atoms: C_5  and  O_6
REMARK    3  A    between atoms: C_11  and  C_21
REMARK    4  A    between atoms: O_13  and  C_14
REMARK    5  A    between atoms: C_24  and  O_27
REMARK    6  A    between atoms: O_27  and  C_28
REMARK    7  A    between atoms: C_28  and  C_29
REMARK    8  A    between atoms: C_29  and  N_30
REMARK                            x       y       z     vdW  Elec       q    Type
REMARK                         _______ _______ _______ _____ _____    ______ ____
ROOT
ATOM      1  C   UNL     1      39.374  -0.661  14.819  0.00  0.00    +0.118 C 
ATOM      2  C   UNL     1      38.118  -0.903  13.940  0.00  0.00    +0.202 C 
ATOM      3  O   UNL     1      38.430  -1.572  12.712  0.00  0.00    -0.473 OA
ATOM      4  C   UNL     1      39.620  -2.259  12.426  0.00  0.00    +0.145 A 
ATOM      5  C   UNL     1      40.577  -2.547  13.420  0.00  0.00    +0.063 A 
ATOM      6  C   UNL     1      41.795  -3.129  13.066  0.00  0.00    +0.046 A 
ATOM      7  C   UNL     1      42.057  -3.468  11.736  0.00  0.00    +0.134 A 
ATOM      8  C   UNL     1      41.093  -3.218  10.751  0.00  0.00    +0.040 A 
ATOM      9  C   UNL     1      39.879  -2.620  11.097  0.00  0.00    +0.041 A 
ATOM     10  S   UNL     1      40.245  -2.233  15.151  0.00  0.00    -0.103 S 
ENDROOT
BRANCH   2  11
ATOM     11  C   UNL     1      37.011  -1.641  14.666  0.00  0.00    +0.019 A 
ATOM     12  C   UNL     1      36.116  -0.971  15.519  0.00  0.00    +0.002 A 
ATOM     13  C   UNL     1      35.050  -1.656  16.112  0.00  0.00    +0.037 A 
ATOM     14  C   UNL     1      34.854  -3.029  15.852  0.00  0.00    +0.139 A 
ATOM     15  C   UNL     1      35.767  -3.700  15.032  0.00  0.00    +0.037 A 
ATOM     16  C   UNL     1      36.829  -3.015  14.439  0.00  0.00    +0.002 A 
BRANCH  14  17
ATOM     17  O   UNL     1      33.762  -3.755  16.357  0.00  0.00    -0.474 OA
BRANCH  17  18
ATOM     18  C   UNL     1      33.161  -3.552  17.637  0.00  0.00    +0.223 C 
BRANCH  18  19
ATOM     19  C   UNL     1      33.705  -4.554  18.667  0.00  0.00    +0.120 C 
BRANCH  19  20
ATOM     20  N   UNL     1      34.109  -3.893  19.931  0.00  0.00    -0.270 NA
ATOM     21  C   UNL     1      35.267  -4.541  20.589  0.00  0.00    +0.072 C 
ATOM     22  C   UNL     1      36.568  -4.391  19.776  0.00  0.00    +0.017 C 
ATOM     23  C   UNL     1      36.700  -2.999  19.125  0.00  0.00    +0.003 C 
ATOM     24  C   UNL     1      35.783  -1.971  19.789  0.00  0.00    +0.017 C 
ATOM     25  C   UNL     1      34.305  -2.425  19.759  0.00  0.00    +0.072 C 
ENDBRANCH  19  20
ENDBRANCH  18  19
ENDBRANCH  17  18
ENDBRANCH  14  17
ENDBRANCH   2  11
BRANCH   1  26
ATOM     26  C   UNL     1      39.032   0.070  16.103  0.00  0.00    -0.008 A 
ATOM     27  C   UNL     1      38.614   1.413  16.041  0.00  0.00    -0.000 A 
ATOM     28  C   UNL     1      38.238   2.097  17.200  0.00  0.00    +0.036 A 
ATOM     29  C   UNL     1      38.263   1.443  18.439  0.00  0.00    +0.134 A 
ATOM     30  C   UNL     1      38.663   0.103  18.510  0.00  0.00    +0.036 A 
ATOM     31  C   UNL     1      39.037  -0.585  17.352  0.00  0.00    -0.000 A 
BRANCH  29  32
ATOM     32  O   UNL     1      37.882   2.107  19.604  0.00  0.00    -0.506 OA
ATOM     33  H   UNL     1      37.513   3.051  19.578  0.00  0.00    +0.292 HD
ENDBRANCH  29  32
ENDBRANCH   1  26
BRANCH   7  34
ATOM     34  O   UNL     1      43.272  -4.060  11.403  0.00  0.00    -0.505 OA
ATOM     35  H   UNL     1      43.507  -4.282  10.441  0.00  0.00    +0.292 HD
ENDBRANCH   7  34
TORSDOF 8
ENDMDL
MODEL        9
REMARK  Name = CMP_1
REMARK  8 active torsions:
REMARK  status: ('A' for Active; 'I' for Inactive)
REMARK    1  A    between atoms: C_1  and  C_17
REMARK    2  A    between atoms: C_5  and  O_6
REMARK    3  A    between atoms: C_11  and  C_21
REMARK    4  A    between atoms: O_13  and  C_14
REMARK    5  A    between atoms: C_24  and  O_27
REMARK    6  A    between atoms: O_27  and  C_28
REMARK    7  A    between atoms: C_28  and  C_29
REMARK    8  A    between atoms: C_29  and  N_30
REMARK                            x       y       z     vdW  Elec       q    Type
REMARK                         _______ _______ _______ _____ _____    ______ ____
ROOT
ATOM      1  C   UNL     1      39.627  -0.578  15.267  0.00  0.00    +0.118 C 
ATOM      2  C   UNL     1      38.985  -1.341  16.457  0.00  0.00    +0.202 C 
ATOM      3  O   UNL     1      38.547  -0.461  17.499  0.00  0.00    -0.473 OA
ATOM      4  C   UNL     1      38.366   0.926  17.386  0.00  0.00    +0.145 A 
ATOM      5  C   UNL     1      38.400   1.587  16.142  0.00  0.00    +0.063 A 
ATOM      6  C   UNL     1      38.330   2.981  16.092  0.00  0.00    +0.046 A 
ATOM      7  C   UNL     1      38.185   3.725  17.267  0.00  0.00    +0.134 A 
ATOM      8  C   UNL     1      38.113   3.067  18.501  0.00  0.00    +0.040 A 
ATOM      9  C   UNL     1      38.199   1.675  18.558  0.00  0.00    +0.041 A 
ATOM     10  S   UNL     1      38.474   0.675  14.604  0.00  0.00    -0.103 S 
ENDROOT
BRANCH   2  11
ATOM     11  C   UNL     1      37.851  -2.256  16.039  0.00  0.00    +0.019 A 
ATOM     12  C   UNL     1      37.993  -3.655  16.050  0.00  0.00    +0.002 A 
ATOM     13  C   UNL     1      36.908  -4.483  15.743  0.00  0.00    +0.037 A 
ATOM     14  C   UNL     1      35.652  -3.922  15.429  0.00  0.00    +0.139 A 
ATOM     15  C   UNL     1      35.524  -2.530  15.384  0.00  0.00    +0.037 A 
ATOM     16  C   UNL     1      36.607  -1.705  15.693  0.00  0.00    +0.002 A 
BRANCH  14  17
ATOM     17  O   UNL     1      34.507  -4.699  15.184  0.00  0.00    -0.474 OA
BRANCH  17  18
ATOM     18  C   UNL     1      33.163  -4.287  15.440  0.00  0.00    +0.223 C 
BRANCH  18  19
ATOM     19  C   UNL     1      32.739  -4.649  16.872  0.00  0.00    +0.120 C 
BRANCH  19  20
ATOM     20  N   UNL     1      33.056  -3.571  17.839  0.00  0.00    -0.270 NA
ATOM     21  C   UNL     1      32.388  -2.286  17.527  0.00  0.00    +0.072 C 
ATOM     22  C   UNL     1      30.857  -2.361  17.694  0.00  0.00    +0.017 C 
ATOM     23  C   UNL     1      30.437  -3.199  18.918  0.00  0.00    +0.003 C 
ATOM     24  C   UNL     1      31.585  -3.365  19.915  0.00  0.00    +0.017 C 
ATOM     25  C   UNL     1      32.828  -3.999  19.249  0.00  0.00    +0.072 C 
ENDBRANCH  19  20
ENDBRANCH  18  19
ENDBRANCH  17  18
ENDBRANCH  14  17
ENDBRANCH   2  11
BRANCH   1  26
ATOM     26  C   UNL     1      40.109  -1.523  14.184  0.00  0.00    -0.008 A 
ATOM     27  C   UNL     1      41.240  -2.327  14.423  0.00  0.00    -0.000 A 
ATOM     28  C   UNL     1      41.676  -3.248  13.467  0.00  0.00    +0.036 A 
ATOM     29  C   UNL     1      40.977  -3.389  12.260  0.00  0.00    +0.134 A 
ATOM     30  C   UNL     1      39.843  -2.605  12.019  0.00  0.00    +0.036 A 
ATOM     31  C   UNL     1      39.403  -1.685  12.974  0.00  0.00    -0.000 A 
BRANCH  29  32
ATOM     32  O   UNL     1      41.392  -4.310  11.300  0.00  0.00    -0.506 OA
ATOM     33  H   UNL     1      42.161  -4.947  11.475  0.00  0.00    +0.292 HD
ENDBRANCH  29  32
ENDBRANCH   1  26
BRANCH   7  34
ATOM     34  O   UNL     1      38.104   5.112  17.196  0.00  0.00    -0.505 OA
ATOM     35  H   UNL     1      38.037   5.681  18.035  0.00  0.00    +0.292 HD
ENDBRANCH   7  34
TORSDOF 8
ENDMDL
MODEL       10
REMARK  Name = CMP_1
REMARK  8 active torsions:
REMARK  status: ('A' for Active; 'I' for Inactive)
REMARK    1  A    between atoms: C_1  and  C_17
REMARK    2  A    between atoms: C_5  and  O_6
REMARK    3  A    between atoms: C_11  and  C_21
REMARK    4  A    between atoms: O_13  and  C_14
REMARK    5  A    between atoms: C_24  and  O_27
REMARK    6  A    between atoms: O_27  and  C_28
REMARK    7  A    between atoms: C_28  and  C_29
REMARK    8  A    between atoms: C_29  and  N_30
REMARK                            x       y       z     vdW  Elec       q    Type
REMARK                         _______ _______ _______ _____ _____    ______ ____
ROOT
ATOM      1  C   UNL     1      34.961  -2.681  16.760  0.00  0.00    +0.118 C 
ATOM      2  C   UNL     1      36.043  -3.321  17.670  0.00  0.00    +0.202 C 
ATOM      3  O   UNL     1      37.276  -2.592  17.649  0.00  0.00    -0.473 OA
ATOM      4  C   UNL     1      37.453  -1.282  17.177  0.00  0.00    +0.145 A 
ATOM      5  C   UNL     1      36.363  -0.448  16.855  0.00  0.00    +0.063 A 
ATOM      6  C   UNL     1      36.589   0.804  16.281  0.00  0.00    +0.046 A 
ATOM      7  C   UNL     1      37.893   1.256  16.061  0.00  0.00    +0.134 A 
ATOM      8  C   UNL     1      38.979   0.445  16.415  0.00  0.00    +0.040 A 
ATOM      9  C   UNL     1      38.758  -0.815  16.975  0.00  0.00    +0.041 A 
ATOM     10  S   UNL     1      34.678  -0.935  17.219  0.00  0.00    -0.103 S 
ENDROOT
BRANCH   2  11
ATOM     11  C   UNL     1      35.582  -3.521  19.100  0.00  0.00    +0.019 A 
ATOM     12  C   UNL     1      35.288  -2.430  19.938  0.00  0.00    +0.002 A 
ATOM     13  C   UNL     1      34.782  -2.638  21.225  0.00  0.00    +0.037 A 
ATOM     14  C   UNL     1      34.551  -3.948  21.696  0.00  0.00    +0.139 A 
ATOM     15  C   UNL     1      34.879  -5.031  20.873  0.00  0.00    +0.037 A 
ATOM     16  C   UNL     1      35.382  -4.822  19.588  0.00  0.00    +0.002 A 
BRANCH  14  17
ATOM     17  O   UNL     1      33.977  -4.221  22.950  0.00  0.00    -0.474 OA
BRANCH  17  18
ATOM     18  C   UNL     1      32.803  -3.596  23.470  0.00  0.00    +0.223 C 
BRANCH  18  19
ATOM     19  C   UNL     1      32.916  -3.389  24.988  0.00  0.00    +0.120 C 
BRANCH  19  20
ATOM     20  N   UNL     1      32.984  -1.954  25.354  0.00  0.00    -0.270 NA
ATOM     21  C   UNL     1      31.863  -1.154  24.806  0.00  0.00    +0.072 C 
ATOM     22  C   UNL     1      30.507  -1.532  25.434  0.00  0.00    +0.017 C 
ATOM     23  C   UNL     1      30.615  -1.818  26.945  0.00  0.00    +0.003 C 
ATOM     24  C   UNL     1      31.893  -1.231  27.546  0.00  0.00    +0.017 C 
ATOM     25  C   UNL     1      33.154  -1.756  26.823  0.00  0.00    +0.072 C 
ENDBRANCH  19  20
ENDBRANCH  18  19
ENDBRANCH  17  18
ENDBRANCH  14  17
ENDBRANCH   2  11
BRANCH   1  26
ATOM     26  C   UNL     1      33.671  -3.478  16.772  0.00  0.00    -0.008 A 
ATOM     27  C   UNL     1      33.668  -4.793  16.270  0.00  0.00    -0.000 A 
ATOM     28  C   UNL     1      32.509  -5.573  16.319  0.00  0.00    +0.036 A 
ATOM     29  C   UNL     1      31.336  -5.051  16.882  0.00  0.00    +0.134 A 
ATOM     30  C   UNL     1      31.333  -3.749  17.397  0.00  0.00    +0.036 A 
ATOM     31  C   UNL     1      32.490  -2.968  17.353  0.00  0.00    -0.000 A 
BRANCH  29  32
ATOM     32  O   UNL     1      30.175  -5.818  16.948  0.00  0.00    -0.506 OA
ATOM     33  H   UNL     1      30.165  -6.789  16.657  0.00  0.00    +0.292 HD
ENDBRANCH  29  32
ENDBRANCH   1  26
BRANCH   7  34
ATOM     34  O   UNL     1      38.100   2.512  15.500  0.00  0.00    -0.505 OA
ATOM     35  H   UNL     1      39.035   2.852  15.293  0.00  0.00    +0.292 HD
ENDBRANCH   7  34
TORSDOF 8
ENDMDL
MODEL        2
REMARK  Name = CMP_1
REMARK  8 active torsions:
REMARK  status: ('A' for Active; 'I' for Inactive)
REMARK    1  A    between atoms: C_1  and  C_17
REMARK    2  A    between atoms: C_5  and  O_6
REMARK    3  A    between atoms: C_11  and  C_21
REMARK    4  A    between atoms: O_13  and  C_14
REMARK    5  A    between atoms: C_24  and  O_27
REMARK    6  A    between atoms: O_27  and  C_28
REMARK    7  A    between atoms: C_28  and  C_29
REMARK    8  A    between atoms: C_29  and  N_30
REMARK                            x       y       z     vdW  Elec       q    Type
REMARK                         _______ _______ _______ _____ _____    ______ ____
ROOT
ATOM      1  C   UNL     1      36.111  -3.130  17.847  0.00  0.00    +0.118 C 
ATOM      2  C   UNL     1      36.054  -2.035  18.927  0.00  0.00    +0.202 C 
ATOM      3  O   UNL     1      35.340  -0.890  18.475  0.00  0.00    -0.473 OA
ATOM      4  C   UNL     1      35.564  -0.268  17.245  0.00  0.00    +0.145 A 
ATOM      5  C   UNL     1      36.286  -0.895  16.207  0.00  0.00    +0.063 A 
ATOM      6  C   UNL     1      36.411  -0.249  14.969  0.00  0.00    +0.046 A 
ATOM      7  C   UNL     1      35.848   1.013  14.763  0.00  0.00    +0.134 A 
ATOM      8  C   UNL     1      35.143   1.636  15.799  0.00  0.00    +0.040 A 
ATOM      9  C   UNL     1      34.999   0.995  17.031  0.00  0.00    +0.041 A 
ATOM     10  S   UNL     1      37.023  -2.535  16.374  0.00  0.00    -0.103 S 
ENDROOT
BRANCH   2  11
ATOM     11  C   UNL     1      35.451  -2.553  20.215  0.00  0.00    +0.019 A 
ATOM     12  C   UNL     1      34.124  -2.248  20.569  0.00  0.00    +0.002 A 
ATOM     13  C   UNL     1      33.562  -2.779  21.732  0.00  0.00    +0.037 A 
ATOM     14  C   UNL     1      34.306  -3.628  22.558  0.00  0.00    +0.139 A 
ATOM     15  C   UNL     1      35.630  -3.946  22.202  0.00  0.00    +0.037 A 
ATOM     16  C   UNL     1      36.193  -3.417  21.037  0.00  0.00    +0.002 A 
BRANCH  14  17
ATOM     17  O   UNL     1      33.696  -4.134  23.715  0.00  0.00    -0.474 OA
BRANCH  17  18
ATOM     18  C   UNL     1      32.567  -3.543  24.356  0.00  0.00    +0.223 C 
BRANCH  18  19
ATOM     19  C   UNL     1      32.875  -3.313  25.838  0.00  0.00    +0.120 C 
BRANCH  19  20
ATOM     20  N   UNL     1      32.424  -1.979  26.294  0.00  0.00    -0.270 NA
ATOM     21  C   UNL     1      32.512  -0.969  25.204  0.00  0.00    +0.072 C 
ATOM     22  C   UNL     1      32.601   0.462  25.746  0.00  0.00    +0.017 C 
ATOM     23  C   UNL     1      33.867   0.651  26.597  0.00  0.00    +0.003 C 
ATOM     24  C   UNL     1      34.310  -0.648  27.291  0.00  0.00    +0.017 C 
ATOM     25  C   UNL     1      33.114  -1.574  27.549  0.00  0.00    +0.072 C 
ENDBRANCH  19  20
ENDBRANCH  18  19
ENDBRANCH  17  18
ENDBRANCH  14  17
ENDBRANCH   2  11
BRANCH   1  26
ATOM     26  C   UNL     1      34.763  -3.760  17.520  0.00  0.00    -0.008 A 
ATOM     27  C   UNL     1      33.711  -3.036  16.926  0.00  0.00    -0.000 A 
ATOM     28  C   UNL     1      32.473  -3.642  16.692  0.00  0.00    +0.036 A 
ATOM     29  C   UNL     1      32.260  -4.974  17.053  0.00  0.00    +0.134 A 
ATOM     30  C   UNL     1      33.294  -5.704  17.650  0.00  0.00    +0.036 A 
ATOM     31  C   UNL     1      34.534  -5.102  17.883  0.00  0.00    -0.000 A 
BRANCH  29  32
ATOM     32  O   UNL     1      31.020  -5.563  16.817  0.00  0.00    -0.506 OA
ATOM     33  H   UNL     1      30.835  -6.527  17.066  0.00  0.00    +0.292 HD
ENDBRANCH  29  32
ENDBRANCH   1  26
BRANCH   7  34
ATOM     34  O   UNL     1      35.994   1.639  13.527  0.00  0.00    -0.505 OA
ATOM     35  H   UNL     1      35.596   2.553  13.346  0.00  0.00    +0.292 HD
ENDBRANCH   7  34
TORSDOF 8
ENDMDL
MODEL        3
REMARK  Name = CMP_1
REMARK  8 active torsions:
REMARK  status: ('A' for Active; 'I' for Inactive)
REMARK    1  A    between atoms: C_1  and  C_17
REMARK    2  A    between atoms: C_5  and  O_6
REMARK    3  A    between atoms: C_11  and  C_21
REMARK    4  A    between atoms: O_13  and  C_14
REMARK    5  A    between atoms: C_24  and  O_27
REMARK    6  A    between atoms: O_27  and  C_28
REMARK    7  A    between atoms: C_28  and  C_29
REMARK    8  A    between atoms: C_29  and  N_30
REMARK                            x       y       z     vdW  Elec       q    Type
REMARK                         _______ _______ _______ _____ _____    ______ ____
ROOT
ATOM      1  C   UNL     1      36.070  -3.296  17.843  0.00  0.00    +0.118 C 
ATOM      2  C   UNL     1      36.004  -2.209  18.932  0.00  0.00    +0.202 C 
ATOM      3  O   UNL     1      35.303  -1.056  18.480  0.00  0.00    -0.473 OA
ATOM      4  C   UNL     1      35.547  -0.425  17.258  0.00  0.00    +0.145 A 
ATOM      5  C   UNL     1      36.280  -1.047  16.224  0.00  0.00    +0.063 A 
ATOM      6  C   UNL     1      36.426  -0.392  14.994  0.00  0.00    +0.046 A 
ATOM      7  C   UNL     1      35.873   0.876  14.791  0.00  0.00    +0.134 A 
ATOM      8  C   UNL     1      35.157   1.494  15.823  0.00  0.00    +0.040 A 
ATOM      9  C   UNL     1      34.993   0.843  17.047  0.00  0.00    +0.041 A 
ATOM     10  S   UNL     1      37.005  -2.693  16.387  0.00  0.00    -0.103 S 
ENDROOT
BRANCH   2  11
ATOM     11  C   UNL     1      35.380  -2.735  20.207  0.00  0.00    +0.019 A 
ATOM     12  C   UNL     1      36.127  -3.506  21.115  0.00  0.00    +0.002 A 
ATOM     13  C   UNL     1      35.556  -3.936  22.315  0.00  0.00    +0.037 A 
ATOM     14  C   UNL     1      34.237  -3.600  22.636  0.00  0.00    +0.139 A 
ATOM     15  C   UNL     1      33.489  -2.818  21.735  0.00  0.00    +0.037 A 
ATOM     16  C   UNL     1      34.061  -2.385  20.535  0.00  0.00    +0.002 A 
BRANCH  14  17
ATOM     17  O   UNL     1      33.711  -4.059  23.852  0.00  0.00    -0.474 OA
BRANCH  17  18
ATOM     18  C   UNL     1      33.456  -3.230  24.984  0.00  0.00    +0.223 C 
BRANCH  18  19
ATOM     19  C   UNL     1      31.952  -3.189  25.268  0.00  0.00    +0.120 C 
BRANCH  19  20
ATOM     20  N   UNL     1      31.544  -1.911  25.895  0.00  0.00    -0.270 NA
ATOM     21  C   UNL     1      32.139  -1.751  27.249  0.00  0.00    +0.072 C 
ATOM     22  C   UNL     1      31.339  -0.778  28.124  0.00  0.00    +0.017 C 
ATOM     23  C   UNL     1      29.909  -1.293  28.352  0.00  0.00    +0.003 C 
ATOM     24  C   UNL     1      29.395  -2.148  27.180  0.00  0.00    +0.017 C 
ATOM     25  C   UNL     1      30.066  -1.740  25.862  0.00  0.00    +0.072 C 
ENDBRANCH  19  20
ENDBRANCH  18  19
ENDBRANCH  17  18
ENDBRANCH  14  17
ENDBRANCH   2  11
BRANCH   1  26
ATOM     26  C   UNL     1      34.723  -3.915  17.492  0.00  0.00    -0.008 A 
ATOM     27  C   UNL     1      33.706  -3.197  16.831  0.00  0.00    -0.000 A 
ATOM     28  C   UNL     1      32.466  -3.790  16.577  0.00  0.00    +0.036 A 
ATOM     29  C   UNL     1      32.216  -5.103  16.983  0.00  0.00    +0.134 A 
ATOM     30  C   UNL     1      33.214  -5.825  17.646  0.00  0.00    +0.036 A 
ATOM     31  C   UNL     1      34.455  -5.236  17.899  0.00  0.00    -0.000 A 
BRANCH  29  32
ATOM     32  O   UNL     1      30.974  -5.678  16.725  0.00  0.00    -0.506 OA
ATOM     33  H   UNL     1      30.762  -6.629  17.005  0.00  0.00    +0.292 HD
ENDBRANCH  29  32
ENDBRANCH   1  26
BRANCH   7  34
ATOM     34  O   UNL     1      36.039   1.511  13.563  0.00  0.00    -0.505 OA
ATOM     35  H   UNL     1      35.650   2.429  13.384  0.00  0.00    +0.292 HD
ENDBRANCH   7  34
TORSDOF 8
ENDMDL
MODEL        4
REMARK  Name = CMP_1
REMARK  8 active torsions:
REMARK  status: ('A' for Active; 'I' for Inactive)
REMARK    1  A    between atoms: C_1  and  C_17
REMARK    2  A    between atoms: C_5  and  O_6
REMARK    3  A    between atoms: C_11  and  C_21
REMARK    4  A    between atoms: O_13  and  C_14
REMARK    5  A    between atoms: C_24  and  O_27
REMARK    6  A    between atoms: O_27  and  C_28
REMARK    7  A    between atoms: C_28  and  C_29
REMARK    8  A    between atoms: C_29  and  N_30
REMARK                            x       y       z     vdW  Elec       q    Type
REMARK                         _______ _______ _______ _____ _____    ______ ____
ROOT
ATOM      1  C   UNL     1      37.717  -1.164  17.121  0.00  0.00    +0.118 C 
ATOM      2  C   UNL     1      36.857  -0.440  18.174  0.00  0.00    +0.202 C 
ATOM      3  O   UNL     1      35.787   0.280  17.572  0.00  0.00    -0.473 OA
ATOM      4  C   UNL     1      35.941   1.137  16.481  0.00  0.00    +0.145 A 
ATOM      5  C   UNL     1      37.102   1.129  15.677  0.00  0.00    +0.063 A 
ATOM      6  C   UNL     1      37.165   1.961  14.551  0.00  0.00    +0.046 A 
ATOM      7  C   UNL     1      36.102   2.811  14.232  0.00  0.00    +0.134 A 
ATOM      8  C   UNL     1      34.958   2.825  15.039  0.00  0.00    +0.040 A 
ATOM      9  C   UNL     1      34.879   1.988  16.154  0.00  0.00    +0.041 A 
ATOM     10  S   UNL     1      38.510   0.044  15.996  0.00  0.00    -0.103 S 
ENDROOT
BRANCH   2  11
ATOM     11  C   UNL     1      36.322  -1.401  19.214  0.00  0.00    +0.019 A 
ATOM     12  C   UNL     1      34.938  -1.582  19.390  0.00  0.00    +0.002 A 
ATOM     13  C   UNL     1      34.459  -2.514  20.313  0.00  0.00    +0.037 A 
ATOM     14  C   UNL     1      35.346  -3.287  21.070  0.00  0.00    +0.139 A 
ATOM     15  C   UNL     1      36.731  -3.118  20.888  0.00  0.00    +0.037 A 
ATOM     16  C   UNL     1      37.212  -2.187  19.963  0.00  0.00    +0.002 A 
BRANCH  14  17
ATOM     17  O   UNL     1      34.813  -4.208  21.984  0.00  0.00    -0.474 OA
BRANCH  17  18
ATOM     18  C   UNL     1      33.544  -4.072  22.619  0.00  0.00    +0.223 C 
BRANCH  18  19
ATOM     19  C   UNL     1      33.738  -3.752  24.103  0.00  0.00    +0.120 C 
BRANCH  19  20
ATOM     20  N   UNL     1      32.547  -3.091  24.685  0.00  0.00    -0.270 NA
ATOM     21  C   UNL     1      32.049  -1.994  23.813  0.00  0.00    +0.072 C 
ATOM     22  C   UNL     1      31.222  -0.964  24.592  0.00  0.00    +0.017 C 
ATOM     23  C   UNL     1      32.072  -0.285  25.678  0.00  0.00    +0.003 C 
ATOM     24  C   UNL     1      33.185  -1.201  26.216  0.00  0.00    +0.017 C 
ATOM     25  C   UNL     1      32.792  -2.679  26.094  0.00  0.00    +0.072 C 
ENDBRANCH  19  20
ENDBRANCH  18  19
ENDBRANCH  17  18
ENDBRANCH  14  17
ENDBRANCH   2  11
BRANCH   1  26
ATOM     26  C   UNL     1      37.000  -2.296  16.396  0.00  0.00    -0.008 A 
ATOM     27  C   UNL     1      35.813  -2.096  15.662  0.00  0.00    -0.000 A 
ATOM     28  C   UNL     1      35.161  -3.175  15.057  0.00  0.00    +0.036 A 
ATOM     29  C   UNL     1      35.674  -4.468  15.180  0.00  0.00    +0.134 A 
ATOM     30  C   UNL     1      36.847  -4.681  15.911  0.00  0.00    +0.036 A 
ATOM     31  C   UNL     1      37.503  -3.606  16.515  0.00  0.00    -0.000 A 
BRANCH  29  32
ATOM     32  O   UNL     1      35.010  -5.532  14.573  0.00  0.00    -0.506 OA
ATOM     33  H   UNL     1      35.358  -6.482  14.643  0.00  0.00    +0.292 HD
ENDBRANCH  29  32
ENDBRANCH   1  26
BRANCH   7  34
ATOM     34  O   UNL     1      36.191   3.635  13.113  0.00  0.00    -0.505 OA
ATOM     35  H   UNL     1      35.437   4.261  12.854  0.00  0.00    +0.292 HD
ENDBRANCH   7  34
TORSDOF 8
ENDMDL
MODEL        5
REMARK  Name = CMP_1
REMARK  8 active torsions:
REMARK  status: ('A' for Active; 'I' for Inactive)
REMARK    1  A    between atoms: C_1  and  C_17
REMARK    2  A    between atoms: C_5  and  O_6
REMARK    3  A    between atoms: C_11  and  C_21
REMARK    4  A    between atoms: O_13  and  C_14
REMARK    5  A    between atoms: C_24  and  O_27
REMARK    6  A    between atoms: O_27  and  C_28
REMARK    7  A    between atoms: C_28  and  C_29
REMARK    8  A    between atoms: C_29  and  N_30
REMARK                            x       y       z     vdW  Elec       q    Type
REMARK                         _______ _______ _______ _____ _____    ______ ____
ROOT
ATOM      1  C   UNL     1      33.304  -2.828  18.437  0.00  0.00    +0.118 C 
ATOM      2  C   UNL     1      32.939  -4.055  19.292  0.00  0.00    +0.202 C 
ATOM      3  O   UNL     1      33.647  -5.216  18.872  0.00  0.00    -0.473 OA
ATOM      4  C   UNL     1      33.742  -5.632  17.542  0.00  0.00    +0.145 A 
ATOM      5  C   UNL     1      33.419  -4.780  16.464  0.00  0.00    +0.063 A 
ATOM      6  C   UNL     1      33.608  -5.231  15.150  0.00  0.00    +0.046 A 
ATOM      7  C   UNL     1      34.089  -6.520  14.901  0.00  0.00    +0.134 A 
ATOM      8  C   UNL     1      34.396  -7.365  15.973  0.00  0.00    +0.040 A 
ATOM      9  C   UNL     1      34.227  -6.919  17.286  0.00  0.00    +0.041 A 
ATOM     10  S   UNL     1      32.819  -3.092  16.691  0.00  0.00    -0.103 S 
ENDROOT
BRANCH   2  11
ATOM     11  C   UNL     1      33.179  -3.800  20.765  0.00  0.00    +0.019 A 
ATOM     12  C   UNL     1      32.217  -3.143  21.552  0.00  0.00    +0.002 A 
ATOM     13  C   UNL     1      32.426  -2.966  22.922  0.00  0.00    +0.037 A 
ATOM     14  C   UNL     1      33.590  -3.444  23.532  0.00  0.00    +0.139 A 
ATOM     15  C   UNL     1      34.550  -4.112  22.750  0.00  0.00    +0.037 A 
ATOM     16  C   UNL     1      34.341  -4.293  21.379  0.00  0.00    +0.002 A 
BRANCH  14  17
ATOM     17  O   UNL     1      33.752  -3.238  24.910  0.00  0.00    -0.474 OA
BRANCH  17  18
ATOM     18  C   UNL     1      32.708  -3.362  25.872  0.00  0.00    +0.223 C 
BRANCH  18  19
ATOM     19  C   UNL     1      32.723  -2.153  26.812  0.00  0.00    +0.120 C 
BRANCH  19  20
ATOM     20  N   UNL     1      33.468  -1.013  26.232  0.00  0.00    -0.270 NA
ATOM     21  C   UNL     1      34.429  -0.432  27.209  0.00  0.00    +0.072 C 
ATOM     22  C   UNL     1      34.788   1.020  26.876  0.00  0.00    +0.017 C 
ATOM     23  C   UNL     1      33.542   1.920  26.924  0.00  0.00    +0.003 C 
ATOM     24  C   UNL     1      32.252   1.163  26.566  0.00  0.00    +0.017 C 
ATOM     25  C   UNL     1      32.545  -0.015  25.626  0.00  0.00    +0.072 C 
ENDBRANCH  19  20
ENDBRANCH  18  19
ENDBRANCH  17  18
ENDBRANCH  14  17
ENDBRANCH   2  11
BRANCH   1  26
ATOM     26  C   UNL     1      34.740  -2.348  18.608  0.00  0.00    -0.008 A 
ATOM     27  C   UNL     1      35.074  -1.201  19.355  0.00  0.00    -0.000 A 
ATOM     28  C   UNL     1      36.400  -0.769  19.440  0.00  0.00    +0.036 A 
ATOM     29  C   UNL     1      37.413  -1.465  18.777  0.00  0.00    +0.134 A 
ATOM     30  C   UNL     1      37.095  -2.602  18.026  0.00  0.00    +0.036 A 
ATOM     31  C   UNL     1      35.771  -3.038  17.941  0.00  0.00    -0.000 A 
BRANCH  29  32
ATOM     32  O   UNL     1      38.730  -1.019  18.870  0.00  0.00    -0.506 OA
ATOM     33  H   UNL     1      39.487  -1.504  18.402  0.00  0.00    +0.292 HD
ENDBRANCH  29  32
ENDBRANCH   1  26
BRANCH   7  34
ATOM     34  O   UNL     1      34.259  -6.949  13.587  0.00  0.00    -0.505 OA
ATOM     35  H   UNL     1      34.608  -7.876  13.373  0.00  0.00    +0.292 HD
ENDBRANCH   7  34
TORSDOF 8
ENDMDL
MODEL        6
REMARK  Name = CMP_1
REMARK  8 active torsions:
REMARK  status: ('A' for Active; 'I' for Inactive)
REMARK    1  A    between atoms: C_1  and  C_17
REMARK    2  A    between atoms: C_5  and  O_6
REMARK    3  A    between atoms: C_11  and  C_21
REMARK    4  A    between atoms: O_13  and  C_14
REMARK    5  A    between atoms: C_24  and  O_27
REMARK    6  A    between atoms: O_27  and  C_28
REMARK    7  A    between atoms: C_28  and  C_29
REMARK    8  A    between atoms: C_29  and  N_30
REMARK                            x       y       z     vdW  Elec       q    Type
REMARK                         _______ _______ _______ _____ _____    ______ ____
ROOT
ATOM      1  C   UNL     1      36.720  -2.983  17.596  0.00  0.00    +0.118 C 
ATOM      2  C   UNL     1      35.932  -2.990  16.273  0.00  0.00    +0.202 C 
ATOM      3  O   UNL     1      34.620  -2.465  16.443  0.00  0.00    -0.473 OA
ATOM      4  C   UNL     1      33.750  -2.857  17.463  0.00  0.00    +0.145 A 
ATOM      5  C   UNL     1      34.196  -3.565  18.600  0.00  0.00    +0.063 A 
ATOM      6  C   UNL     1      33.288  -3.863  19.625  0.00  0.00    +0.046 A 
ATOM      7  C   UNL     1      31.947  -3.485  19.521  0.00  0.00    +0.134 A 
ATOM      8  C   UNL     1      31.506  -2.793  18.387  0.00  0.00    +0.040 A 
ATOM      9  C   UNL     1      32.406  -2.477  17.368  0.00  0.00    +0.041 A 
ATOM     10  S   UNL     1      35.915  -4.069  18.832  0.00  0.00    -0.103 S 
ENDROOT
BRANCH   2  11
ATOM     11  C   UNL     1      36.661  -2.232  15.185  0.00  0.00    +0.019 A 
ATOM     12  C   UNL     1      36.249  -0.946  14.796  0.00  0.00    +0.002 A 
ATOM     13  C   UNL     1      36.966  -0.235  13.830  0.00  0.00    +0.037 A 
ATOM     14  C   UNL     1      38.108  -0.788  13.241  0.00  0.00    +0.139 A 
ATOM     15  C   UNL     1      38.531  -2.071  13.637  0.00  0.00    +0.037 A 
ATOM     16  C   UNL     1      37.816  -2.782  14.604  0.00  0.00    +0.002 A 
BRANCH  14  17
ATOM     17  O   UNL     1      38.791  -0.034  12.276  0.00  0.00    -0.474 OA
BRANCH  17  18
ATOM     18  C   UNL     1      39.591   1.111  12.565  0.00  0.00    +0.223 C 
BRANCH  18  19
ATOM     19  C   UNL     1      38.802   2.386  12.255  0.00  0.00    +0.120 C 
BRANCH  19  20
ATOM     20  N   UNL     1      38.685   3.263  13.442  0.00  0.00    -0.270 NA
ATOM     21  C   UNL     1      39.089   2.557  14.688  0.00  0.00    +0.072 C 
ATOM     22  C   UNL     1      38.477   3.193  15.941  0.00  0.00    +0.017 C 
ATOM     23  C   UNL     1      36.941   3.125  15.898  0.00  0.00    +0.003 C 
ATOM     24  C   UNL     1      36.389   3.150  14.463  0.00  0.00    +0.017 C 
ATOM     25  C   UNL     1      37.340   3.896  13.517  0.00  0.00    +0.072 C 
ENDBRANCH  19  20
ENDBRANCH  18  19
ENDBRANCH  17  18
ENDBRANCH  14  17
ENDBRANCH   2  11
BRANCH   1  26
ATOM     26  C   UNL     1      37.048  -1.592  18.124  0.00  0.00    -0.008 A 
ATOM     27  C   UNL     1      36.093  -0.779  18.765  0.00  0.00    -0.000 A 
ATOM     28  C   UNL     1      36.425   0.512  19.186  0.00  0.00    +0.036 A 
ATOM     29  C   UNL     1      37.709   1.017  18.969  0.00  0.00    +0.134 A 
ATOM     30  C   UNL     1      38.666   0.223  18.327  0.00  0.00    +0.036 A 
ATOM     31  C   UNL     1      38.338  -1.069  17.907  0.00  0.00    -0.000 A 
BRANCH  29  32
ATOM     32  O   UNL     1      38.024   2.306  19.391  0.00  0.00    -0.506 OA
ATOM     33  H   UNL     1      38.947   2.700  19.250  0.00  0.00    +0.292 HD
ENDBRANCH  29  32
ENDBRANCH   1  26
BRANCH   7  34
ATOM     34  O   UNL     1      31.061  -3.800  20.550  0.00  0.00    -0.505 OA
ATOM     35  H   UNL     1      30.083  -3.539  20.505  0.00  0.00    +0.292 HD
ENDBRANCH   7  34
TORSDOF 8
ENDMDL
MODEL        7
REMARK  Name = CMP_1
REMARK  8 active torsions:
REMARK  status: ('A' for Active; 'I' for Inactive)
REMARK    1  A    between atoms: C_1  and  C_17
REMARK    2  A    between atoms: C_5  and  O_6
REMARK    3  A    between atoms: C_11  and  C_21
REMARK    4  A    between atoms: O_13  and  C_14
REMARK    5  A    between atoms: C_24  and  O_27
REMARK    6  A    between atoms: O_27  and  C_28
REMARK    7  A    between atoms: C_28  and  C_29
REMARK    8  A    between atoms: C_29  and  N_30
REMARK                            x       y       z     vdW  Elec       q    Type
REMARK                         _______ _______ _______ _____ _____    ______ ____
ROOT
ATOM      1  C   UNL     1      33.320  -2.891  18.393  0.00  0.00    +0.118 C 
ATOM      2  C   UNL     1      32.937  -4.101  19.265  0.00  0.00    +0.202 C 
ATOM      3  O   UNL     1      33.649  -5.271  18.879  0.00  0.00    -0.473 OA
ATOM      4  C   UNL     1      33.764  -5.713  17.559  0.00  0.00    +0.145 A 
ATOM      5  C   UNL     1      33.463  -4.881  16.460  0.00  0.00    +0.063 A 
ATOM      6  C   UNL     1      33.672  -5.358  15.158  0.00  0.00    +0.046 A 
ATOM      7  C   UNL     1      34.153  -6.653  14.943  0.00  0.00    +0.134 A 
ATOM      8  C   UNL     1      34.439  -7.478  16.036  0.00  0.00    +0.040 A 
ATOM      9  C   UNL     1      34.250  -7.007  17.336  0.00  0.00    +0.041 A 
ATOM     10  S   UNL     1      32.864  -3.187  16.644  0.00  0.00    -0.103 S 
ENDROOT
BRANCH   2  11
ATOM     11  C   UNL     1      33.153  -3.818  20.736  0.00  0.00    +0.019 A 
ATOM     12  C   UNL     1      32.216  -3.074  21.476  0.00  0.00    +0.002 A 
ATOM     13  C   UNL     1      32.400  -2.870  22.846  0.00  0.00    +0.037 A 
ATOM     14  C   UNL     1      33.511  -3.407  23.504  0.00  0.00    +0.139 A 
ATOM     15  C   UNL     1      34.444  -4.162  22.769  0.00  0.00    +0.037 A 
ATOM     16  C   UNL     1      34.261  -4.369  21.399  0.00  0.00    +0.002 A 
BRANCH  14  17
ATOM     17  O   UNL     1      33.649  -3.171  24.879  0.00  0.00    -0.474 OA
BRANCH  17  18
ATOM     18  C   UNL     1      33.059  -2.073  25.573  0.00  0.00    +0.223 C 
BRANCH  18  19
ATOM     19  C   UNL     1      32.002  -2.588  26.554  0.00  0.00    +0.120 C 
BRANCH  19  20
ATOM     20  N   UNL     1      30.910  -1.608  26.751  0.00  0.00    -0.270 NA
ATOM     21  C   UNL     1      30.856  -1.123  28.156  0.00  0.00    +0.072 C 
ATOM     22  C   UNL     1      29.472  -0.580  28.531  0.00  0.00    +0.017 C 
ATOM     23  C   UNL     1      28.403  -1.681  28.425  0.00  0.00    +0.003 C 
ATOM     24  C   UNL     1      28.745  -2.735  27.358  0.00  0.00    +0.017 C 
ATOM     25  C   UNL     1      29.613  -2.134  26.244  0.00  0.00    +0.072 C 
ENDBRANCH  19  20
ENDBRANCH  18  19
ENDBRANCH  17  18
ENDBRANCH  14  17
ENDBRANCH   2  11
BRANCH   1  26
ATOM     26  C   UNL     1      34.755  -2.413  18.578  0.00  0.00    -0.008 A 
ATOM     27  C   UNL     1      35.082  -1.269  19.334  0.00  0.00    -0.000 A 
ATOM     28  C   UNL     1      36.408  -0.837  19.433  0.00  0.00    +0.036 A 
ATOM     29  C   UNL     1      37.427  -1.530  18.776  0.00  0.00    +0.134 A 
ATOM     30  C   UNL     1      37.115  -2.663  18.017  0.00  0.00    +0.036 A 
ATOM     31  C   UNL     1      35.792  -3.100  17.917  0.00  0.00    -0.000 A 
BRANCH  29  32
ATOM     32  O   UNL     1      38.742  -1.085  18.882  0.00  0.00    -0.506 OA
ATOM     33  H   UNL     1      39.504  -1.567  18.419  0.00  0.00    +0.292 HD
ENDBRANCH  29  32
ENDBRANCH   1  26
BRANCH   7  34
ATOM     34  O   UNL     1      34.344  -7.108  13.640  0.00  0.00    -0.505 OA
ATOM     35  H   UNL     1      34.693  -8.040  13.450  0.00  0.00    +0.292 HD
ENDBRANCH   7  34
TORSDOF 8
ENDMDL
MODEL        8
REMARK  Name = CMP_1
REMARK  8 active torsions:
REMARK  status: ('A' for Active; 'I' for Inactive)
REMARK    1  A    between atoms: C_1  and  C_17
REMARK    2  A    between atoms: C_5  and  O_6
REMARK    3  A    between atoms: C_11  and  C_21
REMARK    4  A    between atoms: O_13  and  C_14
REMARK    5  A    between atoms: C_24  and  O_27
REMARK    6  A    between atoms: O_27  and  C_28
REMARK    7  A    between atoms: C_28  and  C_29
REMARK    8  A    between atoms: C_29  and  N_30
REMARK                            x       y       z     vdW  Elec       q    Type
REMARK                         _______ _______ _______ _____ _____    ______ ____
ROOT
ATOM      1  C   UNL     1      35.447  -1.236  16.662  0.00  0.00    +0.118 C 
ATOM      2  C   UNL     1      35.304  -0.276  17.858  0.00  0.00    +0.202 C 
ATOM      3  O   UNL     1      35.528  -0.944  19.095  0.00  0.00    -0.473 OA
ATOM      4  C   UNL     1      34.932  -2.157  19.445  0.00  0.00    +0.145 A 
ATOM      5  C   UNL     1      34.307  -2.990  18.491  0.00  0.00    +0.063 A 
ATOM      6  C   UNL     1      33.794  -4.231  18.892  0.00  0.00    +0.046 A 
ATOM      7  C   UNL     1      33.876  -4.638  20.227  0.00  0.00    +0.134 A 
ATOM      8  C   UNL     1      34.485  -3.804  21.171  0.00  0.00    +0.040 A 
ATOM      9  C   UNL     1      35.014  -2.573  20.779  0.00  0.00    +0.041 A 
ATOM     10  S   UNL     1      34.181  -2.558  16.742  0.00  0.00    -0.103 S 
ENDROOT
BRANCH   2  11
ATOM     11  C   UNL     1      36.229   0.915  17.731  0.00  0.00    +0.019 A 
ATOM     12  C   UNL     1      36.049   1.866  16.710  0.00  0.00    +0.002 A 
ATOM     13  C   UNL     1      36.875   2.991  16.639  0.00  0.00    +0.037 A 
ATOM     14  C   UNL     1      37.886   3.192  17.584  0.00  0.00    +0.139 A 
ATOM     15  C   UNL     1      38.061   2.249  18.614  0.00  0.00    +0.037 A 
ATOM     16  C   UNL     1      37.235   1.124  18.688  0.00  0.00    +0.002 A 
BRANCH  14  17
ATOM     17  O   UNL     1      38.688   4.337  17.467  0.00  0.00    -0.474 OA
BRANCH  17  18
ATOM     18  C   UNL     1      39.086   5.158  18.562  0.00  0.00    +0.223 C 
BRANCH  18  19
ATOM     19  C   UNL     1      40.036   6.254  18.069  0.00  0.00    +0.120 C 
BRANCH  19  20
ATOM     20  N   UNL     1      39.834   7.527  18.797  0.00  0.00    -0.270 NA
ATOM     21  C   UNL     1      39.377   7.292  20.194  0.00  0.00    +0.072 C 
ATOM     22  C   UNL     1      38.643   8.506  20.776  0.00  0.00    +0.017 C 
ATOM     23  C   UNL     1      37.376   8.824  19.965  0.00  0.00    +0.003 C 
ATOM     24  C   UNL     1      37.505   8.420  18.486  0.00  0.00    +0.017 C 
ATOM     25  C   UNL     1      38.968   8.460  18.027  0.00  0.00    +0.072 C 
ENDBRANCH  19  20
ENDBRANCH  18  19
ENDBRANCH  17  18
ENDBRANCH  14  17
ENDBRANCH   2  11
BRANCH   1  26
ATOM     26  C   UNL     1      36.861  -1.756  16.440  0.00  0.00    -0.008 A 
ATOM     27  C   UNL     1      37.790  -1.097  15.610  0.00  0.00    -0.000 A 
ATOM     28  C   UNL     1      39.060  -1.640  15.393  0.00  0.00    +0.036 A 
ATOM     29  C   UNL     1      39.423  -2.848  15.992  0.00  0.00    +0.134 A 
ATOM     30  C   UNL     1      38.508  -3.516  16.813  0.00  0.00    +0.036 A 
ATOM     31  C   UNL     1      37.238  -2.976  17.034  0.00  0.00    -0.000 A 
BRANCH  29  32
ATOM     32  O   UNL     1      40.691  -3.377  15.764  0.00  0.00    -0.506 OA
ATOM     33  H   UNL     1      40.984  -4.251  16.185  0.00  0.00    +0.292 HD
ENDBRANCH  29  32
ENDBRANCH   1  26
BRANCH   7  34
ATOM     34  O   UNL     1      33.350  -5.872  20.603  0.00  0.00    -0.505 OA
ATOM     35  H   UNL     1      33.395  -6.197  21.562  0.00  0.00    +0.292 HD
ENDBRANCH   7  34
TORSDOF 8
ENDMDL
MODEL        9
REMARK  Name = CMP_1
REMARK  8 active torsions:
REMARK  status: ('A' for Active; 'I' for Inactive)
REMARK    1  A    between atoms: C_1  and  C_17
REMARK    2  A    between atoms: C_5  and  O_6
REMARK    3  A    between atoms: C_11  and  C_21
REMARK    4  A    between atoms: O_13  and  C_14
REMARK    5  A    between atoms: C_24  and  O_27
REMARK    6  A    between atoms: O_27  and  C_28
REMARK    7  A    between atoms: C_28  and  C_29
REMARK    8  A    between atoms: C_29  and  N_30
REMARK                            x       y       z     vdW  Elec       q    Type
REMARK                         _______ _______ _______ _____ _____    ______ ____
ROOT
ATOM      1  C   UNL     1      35.526  -1.746  16.565  0.00  0.00    +0.118 C 
ATOM      2  C   UNL     1      35.263  -0.985  17.878  0.00  0.00    +0.202 C 
ATOM      3  O   UNL     1      35.516  -1.801  19.016  0.00  0.00    -0.473 OA
ATOM      4  C   UNL     1      35.026  -3.101  19.168  0.00  0.00    +0.145 A 
ATOM      5  C   UNL     1      34.507  -3.839  18.082  0.00  0.00    +0.063 A 
ATOM      6  C   UNL     1      34.102  -5.165  18.283  0.00  0.00    +0.046 A 
ATOM      7  C   UNL     1      34.186  -5.752  19.549  0.00  0.00    +0.134 A 
ATOM      8  C   UNL     1      34.691  -5.013  20.625  0.00  0.00    +0.040 A 
ATOM      9  C   UNL     1      35.112  -3.696  20.431  0.00  0.00    +0.041 A 
ATOM     10  S   UNL     1      34.387  -3.172  16.408  0.00  0.00    -0.103 S 
ENDROOT
BRANCH   2  11
ATOM     11  C   UNL     1      36.075   0.289  17.957  0.00  0.00    +0.019 A 
ATOM     12  C   UNL     1      37.134   0.418  18.873  0.00  0.00    +0.002 A 
ATOM     13  C   UNL     1      37.912   1.578  18.896  0.00  0.00    +0.037 A 
ATOM     14  C   UNL     1      37.656   2.625  18.004  0.00  0.00    +0.139 A 
ATOM     15  C   UNL     1      36.605   2.495  17.077  0.00  0.00    +0.037 A 
ATOM     16  C   UNL     1      35.827   1.334  17.051  0.00  0.00    +0.002 A 
BRANCH  14  17
ATOM     17  O   UNL     1      38.466   3.768  18.069  0.00  0.00    -0.474 OA
BRANCH  17  18
ATOM     18  C   UNL     1      38.739   4.627  16.964  0.00  0.00    +0.223 C 
BRANCH  18  19
ATOM     19  C   UNL     1      38.383   6.070  17.329  0.00  0.00    +0.120 C 
BRANCH  19  20
ATOM     20  N   UNL     1      39.586   6.869  17.657  0.00  0.00    -0.270 NA
ATOM     21  C   UNL     1      40.837   6.138  17.320  0.00  0.00    +0.072 C 
ATOM     22  C   UNL     1      42.041   6.648  18.121  0.00  0.00    +0.017 C 
ATOM     23  C   UNL     1      41.825   6.441  19.629  0.00  0.00    +0.003 C 
ATOM     24  C   UNL     1      40.339   6.491  20.026  0.00  0.00    +0.017 C 
ATOM     25  C   UNL     1      39.538   7.370  19.057  0.00  0.00    +0.072 C 
ENDBRANCH  19  20
ENDBRANCH  18  19
ENDBRANCH  17  18
ENDBRANCH  14  17
ENDBRANCH   2  11
BRANCH   1  26
ATOM     26  C   UNL     1      36.988  -2.100  16.327  0.00  0.00    -0.008 A 
ATOM     27  C   UNL     1      37.853  -1.287  15.569  0.00  0.00    -0.000 A 
ATOM     28  C   UNL     1      39.174  -1.679  15.332  0.00  0.00    +0.036 A 
ATOM     29  C   UNL     1      39.652  -2.889  15.840  0.00  0.00    +0.134 A 
ATOM     30  C   UNL     1      38.802  -3.710  16.589  0.00  0.00    +0.036 A 
ATOM     31  C   UNL     1      37.482  -3.321  16.829  0.00  0.00    -0.000 A 
BRANCH  29  32
ATOM     32  O   UNL     1      40.970  -3.267  15.593  0.00  0.00    -0.506 OA
ATOM     33  H   UNL     1      41.346  -4.138  15.948  0.00  0.00    +0.292 HD
ENDBRANCH  29  32
ENDBRANCH   1  26
BRANCH   7  34
ATOM     34  O   UNL     1      33.769  -7.069  19.726  0.00  0.00    -0.505 OA
ATOM     35  H   UNL     1      33.819  -7.524  20.631  0.00  0.00    +0.292 HD
ENDBRANCH   7  34
TORSDOF 8
ENDMDL
MODEL       10
REMARK  Name = CMP_1
REMARK  8 active torsions:
REMARK  status: ('A' for Active; 'I' for Inactive)
REMARK    1  A    between atoms: C_1  and  C_17
REMARK    2  A    between atoms: C_5  and  O_6
REMARK    3  A    between atoms: C_11  and  C_21
REMARK    4  A    between atoms: O_13  and  C_14
REMARK    5  A    between atoms: C_24  and  O_27
REMARK    6  A    between atoms: O_27  and  C_28
REMARK    7  A    between atoms: C_28  and  C_29
REMARK    8  A    between atoms: C_29  and  N_30
REMARK                            x       y       z     vdW  Elec       q    Type
REMARK                         _______ _______ _______ _____ _____    ______ ____
ROOT
ATOM      1  C   UNL     1      37.295   0.718  18.314  0.00  0.00    +0.118 C 
ATOM      2  C   UNL     1      35.767   0.768  18.128  0.00  0.00    +0.202 C 
ATOM      3  O   UNL     1      35.412   1.300  16.857  0.00  0.00    -0.473 OA
ATOM      4  C   UNL     1      35.948   2.476  16.327  0.00  0.00    +0.145 A 
ATOM      5  C   UNL     1      37.115   3.073  16.852  0.00  0.00    +0.063 A 
ATOM      6  C   UNL     1      37.647   4.210  16.228  0.00  0.00    +0.046 A 
ATOM      7  C   UNL     1      37.020   4.768  15.110  0.00  0.00    +0.134 A 
ATOM      8  C   UNL     1      35.857   4.180  14.600  0.00  0.00    +0.040 A 
ATOM      9  C   UNL     1      35.329   3.037  15.204  0.00  0.00    +0.041 A 
ATOM     10  S   UNL     1      38.005   2.405  18.275  0.00  0.00    -0.103 S 
ENDROOT
BRANCH   2  11
ATOM     11  C   UNL     1      35.137  -0.595  18.320  0.00  0.00    +0.019 A 
ATOM     12  C   UNL     1      35.297  -1.305  19.523  0.00  0.00    +0.002 A 
ATOM     13  C   UNL     1      34.662  -2.535  19.708  0.00  0.00    +0.037 A 
ATOM     14  C   UNL     1      33.853  -3.076  18.704  0.00  0.00    +0.139 A 
ATOM     15  C   UNL     1      33.680  -2.364  17.503  0.00  0.00    +0.037 A 
ATOM     16  C   UNL     1      34.313  -1.131  17.317  0.00  0.00    +0.002 A 
BRANCH  14  17
ATOM     17  O   UNL     1      33.239  -4.315  18.939  0.00  0.00    -0.474 OA
BRANCH  17  18
ATOM     18  C   UNL     1      33.837  -5.578  18.656  0.00  0.00    +0.223 C 
BRANCH  18  19
ATOM     19  C   UNL     1      33.477  -6.016  17.234  0.00  0.00    +0.120 C 
BRANCH  19  20
ATOM     20  N   UNL     1      34.664  -6.053  16.350  0.00  0.00    -0.270 NA
ATOM     21  C   UNL     1      35.805  -5.296  16.934  0.00  0.00    +0.072 C 
ATOM     22  C   UNL     1      36.807  -4.843  15.867  0.00  0.00    +0.017 C 
ATOM     23  C   UNL     1      36.144  -3.891  14.858  0.00  0.00    +0.003 C 
ATOM     24  C   UNL     1      34.642  -4.172  14.681  0.00  0.00    +0.017 C 
ATOM     25  C   UNL     1      34.318  -5.646  14.961  0.00  0.00    +0.072 C 
ENDBRANCH  19  20
ENDBRANCH  18  19
ENDBRANCH  17  18
ENDBRANCH  14  17
ENDBRANCH   2  11
BRANCH   1  26
ATOM     26  C   UNL     1      38.007  -0.268  17.397  0.00  0.00    -0.008 A 
ATOM     27  C   UNL     1      38.434  -1.539  17.832  0.00  0.00    -0.000 A 
ATOM     28  C   UNL     1      39.131  -2.389  16.969  0.00  0.00    +0.036 A 
ATOM     29  C   UNL     1      39.422  -1.986  15.664  0.00  0.00    +0.134 A 
ATOM     30  C   UNL     1      39.010  -0.725  15.221  0.00  0.00    +0.036 A 
ATOM     31  C   UNL     1      38.311   0.127  16.079  0.00  0.00    -0.000 A 
BRANCH  29  32
ATOM     32  O   UNL     1      40.120  -2.845  14.817  0.00  0.00    -0.506 OA
ATOM     33  H   UNL     1      40.345  -2.582  13.865  0.00  0.00    +0.292 HD
ENDBRANCH  29  32
ENDBRANCH   1  26
BRANCH   7  34
ATOM     34  O   UNL     1      37.562   5.904  14.513  0.00  0.00    -0.505 OA
ATOM     35  H   UNL     1      37.133   6.331  13.700  0.00  0.00    +0.292 HD
ENDBRANCH   7  34
TORSDOF 8
ENDMDL
MODEL        2
REMARK  Name = CMP_1
REMARK  8 active torsions:
REMARK  status: ('A' for Active; 'I' for Inactive)
REMARK    1  A    between atoms: C_1  and  C_17
REMARK    2  A    between atoms: C_5  and  O_6
REMARK    3  A    between atoms: C_11  and  C_21
REMARK    4  A    between atoms: O_13  and  C_14
REMARK    5  A    between atoms: C_24  and  O_27
REMARK    6  A    between atoms: O_27  and  C_28
REMARK    7  A    between atoms: C_28  and  C_29
REMARK    8  A    between atoms: C_29  and  N_30
REMARK                            x       y       z     vdW  Elec       q    Type
REMARK                         _______ _______ _______ _____ _____    ______ ____
ROOT
ATOM      1  C   UNL     1      31.228  -0.605  27.638  0.00  0.00    +0.118 C 
ATOM      2  C   UNL     1      31.275  -2.110  27.274  0.00  0.00    +0.202 C 
ATOM      3  O   UNL     1      29.987  -2.728  27.387  0.00  0.00    -0.473 OA
ATOM      4  C   UNL     1      28.750  -2.065  27.340  0.00  0.00    +0.145 A 
ATOM      5  C   UNL     1      28.643  -0.688  27.058  0.00  0.00    +0.063 A 
ATOM      6  C   UNL     1      27.397  -0.054  27.143  0.00  0.00    +0.046 A 
ATOM      7  C   UNL     1      26.250  -0.789  27.458  0.00  0.00    +0.134 A 
ATOM      8  C   UNL     1      26.350  -2.165  27.696  0.00  0.00    +0.040 A 
ATOM      9  C   UNL     1      27.595  -2.798  27.637  0.00  0.00    +0.041 A 
ATOM     10  S   UNL     1      30.066   0.277  26.541  0.00  0.00    -0.103 S 
ENDROOT
BRANCH   2  11
ATOM     11  C   UNL     1      31.873  -2.390  25.907  0.00  0.00    +0.019 A 
ATOM     12  C   UNL     1      32.958  -3.276  25.788  0.00  0.00    +0.002 A 
ATOM     13  C   UNL     1      33.542  -3.523  24.542  0.00  0.00    +0.037 A 
ATOM     14  C   UNL     1      33.047  -2.887  23.389  0.00  0.00    +0.139 A 
ATOM     15  C   UNL     1      31.967  -2.007  23.506  0.00  0.00    +0.037 A 
ATOM     16  C   UNL     1      31.383  -1.759  24.750  0.00  0.00    +0.002 A 
BRANCH  14  17
ATOM     17  O   UNL     1      33.595  -3.102  22.117  0.00  0.00    -0.474 OA
BRANCH  17  18
ATOM     18  C   UNL     1      33.402  -4.284  21.343  0.00  0.00    +0.223 C 
BRANCH  18  19
ATOM     19  C   UNL     1      33.518  -3.962  19.842  0.00  0.00    +0.120 C 
BRANCH  19  20
ATOM     20  N   UNL     1      32.236  -3.654  19.167  0.00  0.00    -0.270 NA
ATOM     21  C   UNL     1      31.108  -3.479  20.103  0.00  0.00    +0.072 C 
ATOM     22  C   UNL     1      29.789  -3.461  19.322  0.00  0.00    +0.017 C 
ATOM     23  C   UNL     1      29.809  -2.358  18.256  0.00  0.00    +0.003 C 
ATOM     24  C   UNL     1      31.048  -2.482  17.361  0.00  0.00    +0.017 C 
ATOM     25  C   UNL     1      32.321  -2.533  18.211  0.00  0.00    +0.072 C 
ENDBRANCH  19  20
ENDBRANCH  18  19
ENDBRANCH  17  18
ENDBRANCH  14  17
ENDBRANCH   2  11
BRANCH   1  26
ATOM     26  C   UNL     1      32.607   0.030  27.631  0.00  0.00    -0.008 A 
ATOM     27  C   UNL     1      33.549  -0.355  28.601  0.00  0.00    -0.000 A 
ATOM     28  C   UNL     1      34.842   0.177  28.586  0.00  0.00    +0.036 A 
ATOM     29  C   UNL     1      35.216   1.091  27.594  0.00  0.00    +0.134 A 
ATOM     30  C   UNL     1      34.293   1.469  26.616  0.00  0.00    +0.036 A 
ATOM     31  C   UNL     1      32.999   0.941  26.628  0.00  0.00    -0.000 A 
BRANCH  29  32
ATOM     32  O   UNL     1      36.502   1.625  27.569  0.00  0.00    -0.506 OA
ATOM     33  H   UNL     1      37.197   1.368  28.261  0.00  0.00    +0.292 HD
ENDBRANCH  29  32
ENDBRANCH   1  26
BRANCH   7  34
ATOM     34  O   UNL     1      25.017  -0.144  27.526  0.00  0.00    -0.505 OA
ATOM     35  H   UNL     1      24.167  -0.650  27.746  0.00  0.00    +0.292 HD
ENDBRANCH   7  34
TORSDOF 8
ENDMDL
MODEL        3
REMARK  Name = CMP_1
REMARK  8 active torsions:
REMARK  status: ('A' for Active; 'I' for Inactive)
REMARK    1  A    between atoms: C_1  and  C_17
REMARK    2  A    between atoms: C_5  and  O_6
REMARK    3  A    between atoms: C_11  and  C_21
REMARK    4  A    between atoms: O_13  and  C_14
REMARK    5  A    between atoms: C_24  and  O_27
REMARK    6  A    between atoms: O_27  and  C_28
REMARK    7  A    between atoms: C_28  and  C_29
REMARK    8  A    between atoms: C_29  and  N_30
REMARK                            x       y       z     vdW  Elec       q    Type
REMARK                         _______ _______ _______ _____ _____    ______ ____
ROOT
ATOM      1  C   UNL     1      31.217  -0.587  27.684  0.00  0.00    +0.118 C 
ATOM      2  C   UNL     1      31.255  -2.080  27.275  0.00  0.00    +0.202 C 
ATOM      3  O   UNL     1      29.967  -2.698  27.388  0.00  0.00    -0.473 OA
ATOM      4  C   UNL     1      28.731  -2.032  27.378  0.00  0.00    +0.145 A 
ATOM      5  C   UNL     1      28.624  -0.646  27.138  0.00  0.00    +0.063 A 
ATOM      6  C   UNL     1      27.382  -0.013  27.260  0.00  0.00    +0.046 A 
ATOM      7  C   UNL     1      26.237  -0.754  27.569  0.00  0.00    +0.134 A 
ATOM      8  C   UNL     1      26.336  -2.137  27.763  0.00  0.00    +0.040 A 
ATOM      9  C   UNL     1      27.578  -2.770  27.669  0.00  0.00    +0.041 A 
ATOM     10  S   UNL     1      30.042   0.330  26.630  0.00  0.00    -0.103 S 
ENDROOT
BRANCH   2  11
ATOM     11  C   UNL     1      31.833  -2.321  25.892  0.00  0.00    +0.019 A 
ATOM     12  C   UNL     1      32.923  -3.194  25.733  0.00  0.00    +0.002 A 
ATOM     13  C   UNL     1      33.490  -3.404  24.473  0.00  0.00    +0.037 A 
ATOM     14  C   UNL     1      32.971  -2.744  23.344  0.00  0.00    +0.139 A 
ATOM     15  C   UNL     1      31.885  -1.877  23.500  0.00  0.00    +0.037 A 
ATOM     16  C   UNL     1      31.318  -1.666  24.759  0.00  0.00    +0.002 A 
BRANCH  14  17
ATOM     17  O   UNL     1      33.499  -2.923  22.058  0.00  0.00    -0.474 OA
BRANCH  17  18
ATOM     18  C   UNL     1      34.507  -3.874  21.723  0.00  0.00    +0.223 C 
BRANCH  18  19
ATOM     19  C   UNL     1      35.599  -3.214  20.863  0.00  0.00    +0.120 C 
BRANCH  19  20
ATOM     20  N   UNL     1      35.099  -2.292  19.817  0.00  0.00    -0.270 NA
ATOM     21  C   UNL     1      36.087  -1.272  19.413  0.00  0.00    +0.072 C 
ATOM     22  C   UNL     1      35.401  -0.197  18.564  0.00  0.00    +0.017 C 
ATOM     23  C   UNL     1      34.718  -0.829  17.344  0.00  0.00    +0.003 C 
ATOM     24  C   UNL     1      33.779  -1.965  17.768  0.00  0.00    +0.017 C 
ATOM     25  C   UNL     1      34.524  -2.978  18.644  0.00  0.00    +0.072 C 
ENDBRANCH  19  20
ENDBRANCH  18  19
ENDBRANCH  17  18
ENDBRANCH  14  17
ENDBRANCH   2  11
BRANCH   1  26
ATOM     26  C   UNL     1      32.598   0.044  27.677  0.00  0.00    -0.008 A 
ATOM     27  C   UNL     1      33.534  -0.332  28.656  0.00  0.00    -0.000 A 
ATOM     28  C   UNL     1      34.828   0.196  28.642  0.00  0.00    +0.036 A 
ATOM     29  C   UNL     1      35.210   1.099  27.642  0.00  0.00    +0.134 A 
ATOM     30  C   UNL     1      34.292   1.468  26.655  0.00  0.00    +0.036 A 
ATOM     31  C   UNL     1      32.997   0.943  26.667  0.00  0.00    -0.000 A 
BRANCH  29  32
ATOM     32  O   UNL     1      36.498   1.629  27.617  0.00  0.00    -0.506 OA
ATOM     33  H   UNL     1      37.188   1.377  28.315  0.00  0.00    +0.292 HD
ENDBRANCH  29  32
ENDBRANCH   1  26
BRANCH   7  34
ATOM     34  O   UNL     1      25.007  -0.108  27.673  0.00  0.00    -0.505 OA
ATOM     35  H   UNL     1      24.158  -0.618  27.890  0.00  0.00    +0.292 HD
ENDBRANCH   7  34
TORSDOF 8
ENDMDL
MODEL        4
REMARK  Name = CMP_1
REMARK  8 active torsions:
REMARK  status: ('A' for Active; 'I' for Inactive)
REMARK    1  A    between atoms: C_1  and  C_17
REMARK    2  A    between atoms: C_5  and  O_6
REMARK    3  A    between atoms: C_11  and  C_21
REMARK    4  A    between atoms: O_13  and  C_14
REMARK    5  A    between atoms: C_24  and  O_27
REMARK    6  A    between atoms: O_27  and  C_28
REMARK    7  A    between atoms: C_28  and  C_29
REMARK    8  A    between atoms: C_29  and  N_30
REMARK                            x       y       z     vdW  Elec       q    Type
REMARK                         _______ _______ _______ _____ _____    ______ ____
ROOT
ATOM      1  C   UNL     1      31.282  -0.575  27.698  0.00  0.00    +0.118 C 
ATOM      2  C   UNL     1      31.317  -2.062  27.269  0.00  0.00    +0.202 C 
ATOM      3  O   UNL     1      30.029  -2.682  27.381  0.00  0.00    -0.473 OA
ATOM      4  C   UNL     1      28.794  -2.015  27.387  0.00  0.00    +0.145 A 
ATOM      5  C   UNL     1      28.686  -0.626  27.167  0.00  0.00    +0.063 A 
ATOM      6  C   UNL     1      27.444   0.006  27.304  0.00  0.00    +0.046 A 
ATOM      7  C   UNL     1      26.301  -0.738  27.611  0.00  0.00    +0.134 A 
ATOM      8  C   UNL     1      26.401  -2.124  27.787  0.00  0.00    +0.040 A 
ATOM      9  C   UNL     1      27.642  -2.756  27.676  0.00  0.00    +0.041 A 
ATOM     10  S   UNL     1      30.101   0.356  26.663  0.00  0.00    -0.103 S 
ENDROOT
BRANCH   2  11
ATOM     11  C   UNL     1      31.887  -2.285  25.879  0.00  0.00    +0.019 A 
ATOM     12  C   UNL     1      31.329  -1.610  24.779  0.00  0.00    +0.002 A 
ATOM     13  C   UNL     1      31.819  -1.826  23.489  0.00  0.00    +0.037 A 
ATOM     14  C   UNL     1      32.881  -2.722  23.274  0.00  0.00    +0.139 A 
ATOM     15  C   UNL     1      33.439  -3.393  24.367  0.00  0.00    +0.037 A 
ATOM     16  C   UNL     1      32.950  -3.179  25.658  0.00  0.00    +0.002 A 
BRANCH  14  17
ATOM     17  O   UNL     1      33.411  -2.972  22.001  0.00  0.00    -0.474 OA
BRANCH  17  18
ATOM     18  C   UNL     1      34.384  -3.973  21.712  0.00  0.00    +0.223 C 
BRANCH  18  19
ATOM     19  C   UNL     1      34.098  -4.615  20.343  0.00  0.00    +0.120 C 
BRANCH  19  20
ATOM     20  N   UNL     1      35.296  -5.090  19.612  0.00  0.00    -0.270 NA
ATOM     21  C   UNL     1      35.745  -6.432  20.031  0.00  0.00    +0.072 C 
ATOM     22  C   UNL     1      37.136  -6.713  19.451  0.00  0.00    +0.017 C 
ATOM     23  C   UNL     1      37.120  -6.580  17.923  0.00  0.00    +0.003 C 
ATOM     24  C   UNL     1      36.542  -5.224  17.497  0.00  0.00    +0.017 C 
ATOM     25  C   UNL     1      35.173  -4.997  18.145  0.00  0.00    +0.072 C 
ENDBRANCH  19  20
ENDBRANCH  18  19
ENDBRANCH  17  18
ENDBRANCH  14  17
ENDBRANCH   2  11
BRANCH   1  26
ATOM     26  C   UNL     1      32.663   0.057  27.690  0.00  0.00    -0.008 A 
ATOM     27  C   UNL     1      33.593  -0.305  28.680  0.00  0.00    -0.000 A 
ATOM     28  C   UNL     1      34.887   0.223  28.667  0.00  0.00    +0.036 A 
ATOM     29  C   UNL     1      35.276   1.110  27.656  0.00  0.00    +0.134 A 
ATOM     30  C   UNL     1      34.364   1.464  26.658  0.00  0.00    +0.036 A 
ATOM     31  C   UNL     1      33.069   0.940  26.669  0.00  0.00    -0.000 A 
BRANCH  29  32
ATOM     32  O   UNL     1      36.563   1.640  27.632  0.00  0.00    -0.506 OA
ATOM     33  H   UNL     1      37.249   1.399  28.338  0.00  0.00    +0.292 HD
ENDBRANCH  29  32
ENDBRANCH   1  26
BRANCH   7  34
ATOM     34  O   UNL     1      25.072  -0.094  27.731  0.00  0.00    -0.505 OA
ATOM     35  H   UNL     1      24.225  -0.606  27.946  0.00  0.00    +0.292 HD
ENDBRANCH   7  34
TORSDOF 8
ENDMDL
MODEL        5
REMARK  Name = CMP_1
REMARK  8 active torsions:
REMARK  status: ('A' for Active; 'I' for Inactive)
REMARK    1  A    between atoms: C_1  and  C_17
REMARK    2  A    between atoms: C_5  and  O_6
REMARK    3  A    between atoms: C_11  and  C_21
REMARK    4  A    between atoms: O_13  and  C_14
REMARK    5  A    between atoms: C_24  and  O_27
REMARK    6  A    between atoms: O_27  and  C_28
REMARK    7  A    between atoms: C_28  and  C_29
REMARK    8  A    between atoms: C_29  and  N_30
REMARK                            x       y       z     vdW  Elec       q    Type
REMARK                         _______ _______ _______ _____ _____    ______ ____
ROOT
ATOM      1  C   UNL     1      36.700  -2.810  17.780  0.00  0.00    +0.118 C 
ATOM      2  C   UNL     1      37.227  -2.567  19.216  0.00  0.00    +0.202 C 
ATOM      3  O   UNL     1      37.644  -1.210  19.410  0.00  0.00    -0.473 OA
ATOM      4  C   UNL     1      37.223  -0.104  18.655  0.00  0.00    +0.145 A 
ATOM      5  C   UNL     1      36.226  -0.205  17.663  0.00  0.00    +0.063 A 
ATOM      6  C   UNL     1      35.931   0.902  16.857  0.00  0.00    +0.046 A 
ATOM      7  C   UNL     1      36.584   2.121  17.064  0.00  0.00    +0.134 A 
ATOM      8  C   UNL     1      37.542   2.233  18.079  0.00  0.00    +0.040 A 
ATOM      9  C   UNL     1      37.859   1.125  18.868  0.00  0.00    +0.041 A 
ATOM     10  S   UNL     1      35.283  -1.714  17.431  0.00  0.00    -0.103 S 
ENDROOT
BRANCH   2  11
ATOM     11  C   UNL     1      36.249  -2.976  20.304  0.00  0.00    +0.019 A 
ATOM     12  C   UNL     1      36.608  -3.974  21.227  0.00  0.00    +0.002 A 
ATOM     13  C   UNL     1      35.710  -4.386  22.215  0.00  0.00    +0.037 A 
ATOM     14  C   UNL     1      34.434  -3.801  22.301  0.00  0.00    +0.139 A 
ATOM     15  C   UNL     1      34.076  -2.807  21.385  0.00  0.00    +0.037 A 
ATOM     16  C   UNL     1      34.972  -2.395  20.396  0.00  0.00    +0.002 A 
BRANCH  14  17
ATOM     17  O   UNL     1      33.498  -4.176  23.275  0.00  0.00    -0.474 OA
BRANCH  17  18
ATOM     18  C   UNL     1      32.549  -3.292  23.867  0.00  0.00    +0.223 C 
BRANCH  18  19
ATOM     19  C   UNL     1      32.718  -3.276  25.396  0.00  0.00    +0.120 C 
BRANCH  19  20
ATOM     20  N   UNL     1      33.055  -1.955  25.975  0.00  0.00    -0.270 NA
ATOM     21  C   UNL     1      32.275  -0.844  25.395  0.00  0.00    +0.072 C 
ATOM     22  C   UNL     1      32.886   0.494  25.826  0.00  0.00    +0.017 C 
ATOM     23  C   UNL     1      32.947   0.591  27.355  0.00  0.00    +0.003 C 
ATOM     24  C   UNL     1      33.660  -0.628  27.955  0.00  0.00    +0.017 C 
ATOM     25  C   UNL     1      33.020  -1.925  27.450  0.00  0.00    +0.072 C 
ENDBRANCH  19  20
ENDBRANCH  18  19
ENDBRANCH  17  18
ENDBRANCH  14  17
ENDBRANCH   2  11
BRANCH   1  26
ATOM     26  C   UNL     1      36.363  -4.270  17.533  0.00  0.00    -0.008 A 
ATOM     27  C   UNL     1      37.388  -5.231  17.573  0.00  0.00    -0.000 A 
ATOM     28  C   UNL     1      37.098  -6.587  17.398  0.00  0.00    +0.036 A 
ATOM     29  C   UNL     1      35.776  -7.004  17.194  0.00  0.00    +0.134 A 
ATOM     30  C   UNL     1      34.748  -6.059  17.169  0.00  0.00    +0.036 A 
ATOM     31  C   UNL     1      35.035  -4.702  17.341  0.00  0.00    -0.000 A 
BRANCH  29  32
ATOM     32  O   UNL     1      35.475  -8.353  17.022  0.00  0.00    -0.506 OA
ATOM     33  H   UNL     1      36.198  -9.063  17.040  0.00  0.00    +0.292 HD
ENDBRANCH  29  32
ENDBRANCH   1  26
BRANCH   7  34
ATOM     34  O   UNL     1      36.268   3.215  16.261  0.00  0.00    -0.505 OA
ATOM     35  H   UNL     1      36.718   4.113  16.390  0.00  0.00    +0.292 HD
ENDBRANCH   7  34
TORSDOF 8
ENDMDL
MODEL        6
REMARK  Name = CMP_1
REMARK  8 active torsions:
REMARK  status: ('A' for Active; 'I' for Inactive)
REMARK    1  A    between atoms: C_1  and  C_17
REMARK    2  A    between atoms: C_5  and  O_6
REMARK    3  A    between atoms: C_11  and  C_21
REMARK    4  A    between atoms: O_13  and  C_14
REMARK    5  A    between atoms: C_24  and  O_27
REMARK    6  A    between atoms: O_27  and  C_28
REMARK    7  A    between atoms: C_28  and  C_29
REMARK    8  A    between atoms: C_29  and  N_30
REMARK                            x       y       z     vdW  Elec       q    Type
REMARK                         _______ _______ _______ _____ _____    ______ ____
ROOT
ATOM      1  C   UNL     1      39.257  -0.675  14.800  0.00  0.00    +0.118 C 
ATOM      2  C   UNL     1      38.042  -0.992  13.893  0.00  0.00    +0.202 C 
ATOM      3  O   UNL     1      38.442  -1.588  12.652  0.00  0.00    -0.473 OA
ATOM      4  C   UNL     1      39.648  -2.266  12.417  0.00  0.00    +0.145 A 
ATOM      5  C   UNL     1      40.576  -2.533  13.446  0.00  0.00    +0.063 A 
ATOM      6  C   UNL     1      41.816  -3.103  13.134  0.00  0.00    +0.046 A 
ATOM      7  C   UNL     1      42.121  -3.456  11.816  0.00  0.00    +0.134 A 
ATOM      8  C   UNL     1      41.182  -3.232  10.801  0.00  0.00    +0.040 A 
ATOM      9  C   UNL     1      39.954  -2.638  11.103  0.00  0.00    +0.041 A 
ATOM     10  S   UNL     1      40.189  -2.201  15.167  0.00  0.00    -0.103 S 
ENDROOT
BRANCH   2  11
ATOM     11  C   UNL     1      36.981  -1.844  14.566  0.00  0.00    +0.019 A 
ATOM     12  C   UNL     1      36.877  -3.209  14.249  0.00  0.00    +0.002 A 
ATOM     13  C   UNL     1      35.886  -4.003  14.834  0.00  0.00    +0.037 A 
ATOM     14  C   UNL     1      34.982  -3.443  15.754  0.00  0.00    +0.139 A 
ATOM     15  C   UNL     1      35.085  -2.085  16.073  0.00  0.00    +0.037 A 
ATOM     16  C   UNL     1      36.074  -1.290  15.488  0.00  0.00    +0.002 A 
BRANCH  14  17
ATOM     17  O   UNL     1      33.973  -4.195  16.372  0.00  0.00    -0.474 OA
BRANCH  17  18
ATOM     18  C   UNL     1      33.694  -4.180  17.770  0.00  0.00    +0.223 C 
BRANCH  18  19
ATOM     19  C   UNL     1      34.740  -5.011  18.532  0.00  0.00    +0.120 C 
BRANCH  19  20
ATOM     20  N   UNL     1      36.025  -4.319  18.786  0.00  0.00    -0.270 NA
ATOM     21  C   UNL     1      36.227  -3.960  20.203  0.00  0.00    +0.072 C 
ATOM     22  C   UNL     1      37.417  -3.001  20.326  0.00  0.00    +0.017 C 
ATOM     23  C   UNL     1      38.679  -3.628  19.722  0.00  0.00    +0.003 C 
ATOM     24  C   UNL     1      38.423  -4.103  18.286  0.00  0.00    +0.017 C 
ATOM     25  C   UNL     1      37.199  -5.023  18.236  0.00  0.00    +0.072 C 
ENDBRANCH  19  20
ENDBRANCH  18  19
ENDBRANCH  17  18
ENDBRANCH  14  17
ENDBRANCH   2  11
BRANCH   1  26
ATOM     26  C   UNL     1      38.851   0.059  16.066  0.00  0.00    -0.008 A 
ATOM     27  C   UNL     1      38.990  -0.581  17.310  0.00  0.00    -0.000 A 
ATOM     28  C   UNL     1      38.672   0.090  18.494  0.00  0.00    +0.036 A 
ATOM     29  C   UNL     1      38.222   1.416  18.453  0.00  0.00    +0.134 A 
ATOM     30  C   UNL     1      38.095   2.066  17.223  0.00  0.00    +0.036 A 
ATOM     31  C   UNL     1      38.411   1.398  16.037  0.00  0.00    -0.000 A 
BRANCH  29  32
ATOM     32  O   UNL     1      37.904   2.095  19.627  0.00  0.00    -0.506 OA
ATOM     33  H   UNL     1      37.991   1.653  20.534  0.00  0.00    +0.292 HD
ENDBRANCH  29  32
ENDBRANCH   1  26
BRANCH   7  34
ATOM     34  O   UNL     1      43.355  -4.035  11.526  0.00  0.00    -0.505 OA
ATOM     35  H   UNL     1      43.603  -4.308  10.583  0.00  0.00    +0.292 HD
ENDBRANCH   7  34
TORSDOF 8
ENDMDL
MODEL        7
REMARK  Name = CMP_1
REMARK  8 active torsions:
REMARK  status: ('A' for Active; 'I' for Inactive)
REMARK    1  A    between atoms: C_1  and  C_17
REMARK    2  A    between atoms: C_5  and  O_6
REMARK    3  A    between atoms: C_11  and  C_21
REMARK    4  A    between atoms: O_13  and  C_14
REMARK    5  A    between atoms: C_24  and  O_27
REMARK    6  A    between atoms: O_27  and  C_28
REMARK    7  A    between atoms: C_28  and  C_29
REMARK    8  A    between atoms: C_29  and  N_30
REMARK                            x       y       z     vdW  Elec       q    Type
REMARK                         _______ _______ _______ _____ _____    ______ ____
ROOT
ATOM      1  C   UNL     1      36.114  -2.886  17.782  0.00  0.00    +0.118 C 
ATOM      2  C   UNL     1      36.800  -2.779  19.167  0.00  0.00    +0.202 C 
ATOM      3  O   UNL     1      37.391  -1.489  19.373  0.00  0.00    -0.473 OA
ATOM      4  C   UNL     1      37.032  -0.305  18.709  0.00  0.00    +0.145 A 
ATOM      5  C   UNL     1      35.941  -0.242  17.818  0.00  0.00    +0.063 A 
ATOM      6  C   UNL     1      35.702   0.932  17.092  0.00  0.00    +0.046 A 
ATOM      7  C   UNL     1      36.510   2.057  17.282  0.00  0.00    +0.134 A 
ATOM      8  C   UNL     1      37.567   2.008  18.199  0.00  0.00    +0.040 A 
ATOM      9  C   UNL     1      37.825   0.831  18.907  0.00  0.00    +0.041 A 
ATOM     10  S   UNL     1      34.809  -1.621  17.622  0.00  0.00    -0.103 S 
ENDROOT
BRANCH   2  11
ATOM     11  C   UNL     1      35.889  -3.130  20.330  0.00  0.00    +0.019 A 
ATOM     12  C   UNL     1      34.648  -2.484  20.464  0.00  0.00    +0.002 A 
ATOM     13  C   UNL     1      33.810  -2.771  21.545  0.00  0.00    +0.037 A 
ATOM     14  C   UNL     1      34.199  -3.715  22.512  0.00  0.00    +0.139 A 
ATOM     15  C   UNL     1      35.432  -4.360  22.379  0.00  0.00    +0.037 A 
ATOM     16  C   UNL     1      36.272  -4.074  21.300  0.00  0.00    +0.002 A 
BRANCH  14  17
ATOM     17  O   UNL     1      33.394  -4.041  23.613  0.00  0.00    -0.474 OA
BRANCH  17  18
ATOM     18  C   UNL     1      32.407  -3.180  24.176  0.00  0.00    +0.223 C 
BRANCH  18  19
ATOM     19  C   UNL     1      32.614  -3.054  25.696  0.00  0.00    +0.120 C 
BRANCH  19  20
ATOM     20  N   UNL     1      33.080  -1.726  26.156  0.00  0.00    -0.270 NA
ATOM     21  C   UNL     1      32.300  -0.605  25.595  0.00  0.00    +0.072 C 
ATOM     22  C   UNL     1      33.023   0.717  25.878  0.00  0.00    +0.017 C 
ATOM     23  C   UNL     1      33.254   0.893  27.384  0.00  0.00    +0.003 C 
ATOM     24  C   UNL     1      33.963  -0.331  27.978  0.00  0.00    +0.017 C 
ATOM     25  C   UNL     1      33.206  -1.614  27.622  0.00  0.00    +0.072 C 
ENDBRANCH  19  20
ENDBRANCH  18  19
ENDBRANCH  17  18
ENDBRANCH  14  17
ENDBRANCH   2  11
BRANCH   1  26
ATOM     26  C   UNL     1      35.586  -4.283  17.511  0.00  0.00    -0.008 A 
ATOM     27  C   UNL     1      34.213  -4.468  17.273  0.00  0.00    -0.000 A 
ATOM     28  C   UNL     1      33.708  -5.736  16.971  0.00  0.00    +0.036 A 
ATOM     29  C   UNL     1      34.570  -6.836  16.890  0.00  0.00    +0.134 A 
ATOM     30  C   UNL     1      35.939  -6.661  17.110  0.00  0.00    +0.036 A 
ATOM     31  C   UNL     1      36.447  -5.395  17.414  0.00  0.00    -0.000 A 
BRANCH  29  32
ATOM     32  O   UNL     1      34.078  -8.104  16.588  0.00  0.00    -0.506 OA
ATOM     33  H   UNL     1      33.092  -8.262  16.418  0.00  0.00    +0.292 HD
ENDBRANCH  29  32
ENDBRANCH   1  26
BRANCH   7  34
ATOM     34  O   UNL     1      36.249   3.220  16.560  0.00  0.00    -0.505 OA
ATOM     35  H   UNL     1      36.812   4.054  16.679  0.00  0.00    +0.292 HD
ENDBRANCH   7  34
TORSDOF 8
ENDMDL
MODEL        8
REMARK  Name = CMP_1
REMARK  8 active torsions:
REMARK  status: ('A' for Active; 'I' for Inactive)
REMARK    1  A    between atoms: C_1  and  C_17
REMARK    2  A    between atoms: C_5  and  O_6
REMARK    3  A    between atoms: C_11  and  C_21
REMARK    4  A    between atoms: O_13  and  C_14
REMARK    5  A    between atoms: C_24  and  O_27
REMARK    6  A    between atoms: O_27  and  C_28
REMARK    7  A    between atoms: C_28  and  C_29
REMARK    8  A    between atoms: C_29  and  N_30
REMARK                            x       y       z     vdW  Elec       q    Type
REMARK                         _______ _______ _______ _____ _____    ______ ____
ROOT
ATOM      1  C   UNL     1      35.535  -2.793  17.743  0.00  0.00    +0.118 C 
ATOM      2  C   UNL     1      36.345  -2.874  19.061  0.00  0.00    +0.202 C 
ATOM      3  O   UNL     1      37.153  -1.708  19.264  0.00  0.00    -0.473 OA
ATOM      4  C   UNL     1      36.937  -0.447  18.686  0.00  0.00    +0.145 A 
ATOM      5  C   UNL     1      35.798  -0.161  17.905  0.00  0.00    +0.063 A 
ATOM      6  C   UNL     1      35.693   1.074  17.253  0.00  0.00    +0.046 A 
ATOM      7  C   UNL     1      36.686   2.045  17.413  0.00  0.00    +0.134 A 
ATOM      8  C   UNL     1      37.796   1.777  18.225  0.00  0.00    +0.040 A 
ATOM      9  C   UNL     1      37.918   0.536  18.856  0.00  0.00    +0.041 A 
ATOM     10  S   UNL     1      34.444  -1.330  17.758  0.00  0.00    -0.103 S 
ENDROOT
BRANCH   2  11
ATOM     11  C   UNL     1      35.491  -3.141  20.288  0.00  0.00    +0.019 A 
ATOM     12  C   UNL     1      35.970  -3.992  21.299  0.00  0.00    +0.002 A 
ATOM     13  C   UNL     1      35.187  -4.275  22.421  0.00  0.00    +0.037 A 
ATOM     14  C   UNL     1      33.907  -3.707  22.553  0.00  0.00    +0.139 A 
ATOM     15  C   UNL     1      33.430  -2.858  21.550  0.00  0.00    +0.037 A 
ATOM     16  C   UNL     1      34.212  -2.575  20.427  0.00  0.00    +0.002 A 
BRANCH  14  17
ATOM     17  O   UNL     1      33.083  -3.956  23.660  0.00  0.00    -0.474 OA
BRANCH  17  18
ATOM     18  C   UNL     1      33.165  -3.261  24.902  0.00  0.00    +0.223 C 
BRANCH  18  19
ATOM     19  C   UNL     1      32.114  -2.139  24.957  0.00  0.00    +0.120 C 
BRANCH  19  20
ATOM     20  N   UNL     1      31.436  -1.980  26.263  0.00  0.00    -0.270 NA
ATOM     21  C   UNL     1      31.745  -0.701  26.933  0.00  0.00    +0.072 C 
ATOM     22  C   UNL     1      31.252  -0.746  28.383  0.00  0.00    +0.017 C 
ATOM     23  C   UNL     1      29.751  -1.056  28.433  0.00  0.00    +0.003 C 
ATOM     24  C   UNL     1      29.426  -2.326  27.637  0.00  0.00    +0.017 C 
ATOM     25  C   UNL     1      29.981  -2.223  26.213  0.00  0.00    +0.072 C 
ENDBRANCH  19  20
ENDBRANCH  18  19
ENDBRANCH  17  18
ENDBRANCH  14  17
ENDBRANCH   2  11
BRANCH   1  26
ATOM     26  C   UNL     1      34.764  -4.072  17.464  0.00  0.00    -0.008 A 
ATOM     27  C   UNL     1      33.385  -4.003  17.202  0.00  0.00    -0.000 A 
ATOM     28  C   UNL     1      32.662  -5.159  16.893  0.00  0.00    +0.036 A 
ATOM     29  C   UNL     1      33.309  -6.399  16.829  0.00  0.00    +0.134 A 
ATOM     30  C   UNL     1      34.683  -6.476  17.073  0.00  0.00    +0.036 A 
ATOM     31  C   UNL     1      35.409  -5.323  17.384  0.00  0.00    -0.000 A 
BRANCH  29  32
ATOM     32  O   UNL     1      32.599  -7.556  16.520  0.00  0.00    -0.506 OA
ATOM     33  H   UNL     1      31.604  -7.533  16.333  0.00  0.00    +0.292 HD
ENDBRANCH  29  32
ENDBRANCH   1  26
BRANCH   7  34
ATOM     34  O   UNL     1      36.559   3.273  16.768  0.00  0.00    -0.505 OA
ATOM     35  H   UNL     1      37.258   3.999  16.868  0.00  0.00    +0.292 HD
ENDBRANCH   7  34
TORSDOF 8
ENDMDL
MODEL        9
REMARK  Name = CMP_1
REMARK  8 active torsions:
REMARK  status: ('A' for Active; 'I' for Inactive)
REMARK    1  A    between atoms: C_1  and  C_17
REMARK    2  A    between atoms: C_5  and  O_6
REMARK    3  A    between atoms: C_11  and  C_21
REMARK    4  A    between atoms: O_13  and  C_14
REMARK    5  A    between atoms: C_24  and  O_27
REMARK    6  A    between atoms: O_27  and  C_28
REMARK    7  A    between atoms: C_28  and  C_29
REMARK    8  A    between atoms: C_29  and  N_30
REMARK                            x       y       z     vdW  Elec       q    Type
REMARK                         _______ _______ _______ _____ _____    ______ ____
ROOT
ATOM      1  C   UNL     1      36.656  -2.447  17.524  0.00  0.00    +0.118 C 
ATOM      2  C   UNL     1      35.687  -1.263  17.762  0.00  0.00    +0.202 C 
ATOM      3  O   UNL     1      34.856  -1.474  18.911  0.00  0.00    -0.473 OA
ATOM      4  C   UNL     1      35.139  -2.335  19.983  0.00  0.00    +0.145 A 
ATOM      5  C   UNL     1      36.366  -3.021  20.095  0.00  0.00    +0.063 A 
ATOM      6  C   UNL     1      36.549  -3.959  21.119  0.00  0.00    +0.046 A 
ATOM      7  C   UNL     1      35.541  -4.183  22.061  0.00  0.00    +0.134 A 
ATOM      8  C   UNL     1      34.339  -3.469  21.976  0.00  0.00    +0.040 A 
ATOM      9  C   UNL     1      34.141  -2.551  20.941  0.00  0.00    +0.041 A 
ATOM     10  S   UNL     1      37.732  -2.689  18.978  0.00  0.00    -0.103 S 
ENDROOT
BRANCH   2  11
ATOM     11  C   UNL     1      36.379   0.085  17.858  0.00  0.00    +0.019 A 
ATOM     12  C   UNL     1      36.265   1.006  16.801  0.00  0.00    +0.002 A 
ATOM     13  C   UNL     1      36.921   2.238  16.856  0.00  0.00    +0.037 A 
ATOM     14  C   UNL     1      37.703   2.575  17.976  0.00  0.00    +0.139 A 
ATOM     15  C   UNL     1      37.817   1.662  19.029  0.00  0.00    +0.037 A 
ATOM     16  C   UNL     1      37.162   0.428  18.974  0.00  0.00    +0.002 A 
BRANCH  14  17
ATOM     17  O   UNL     1      38.379   3.799  18.082  0.00  0.00    -0.474 OA
BRANCH  17  18
ATOM     18  C   UNL     1      38.241   4.880  17.164  0.00  0.00    +0.223 C 
BRANCH  18  19
ATOM     19  C   UNL     1      38.705   6.195  17.816  0.00  0.00    +0.120 C 
BRANCH  19  20
ATOM     20  N   UNL     1      40.081   6.170  18.363  0.00  0.00    -0.270 NA
ATOM     21  C   UNL     1      41.056   6.907  17.534  0.00  0.00    +0.072 C 
ATOM     22  C   UNL     1      42.479   6.585  18.003  0.00  0.00    +0.017 C 
ATOM     23  C   UNL     1      42.644   6.917  19.491  0.00  0.00    +0.003 C 
ATOM     24  C   UNL     1      41.555   6.237  20.330  0.00  0.00    +0.017 C 
ATOM     25  C   UNL     1      40.166   6.574  19.780  0.00  0.00    +0.072 C 
ENDBRANCH  19  20
ENDBRANCH  18  19
ENDBRANCH  17  18
ENDBRANCH  14  17
ENDBRANCH   2  11
BRANCH   1  26
ATOM     26  C   UNL     1      37.459  -2.282  16.246  0.00  0.00    -0.008 A 
ATOM     27  C   UNL     1      38.861  -2.208  16.316  0.00  0.00    -0.000 A 
ATOM     28  C   UNL     1      39.627  -2.107  15.152  0.00  0.00    +0.036 A 
ATOM     29  C   UNL     1      39.003  -2.091  13.898  0.00  0.00    +0.134 A 
ATOM     30  C   UNL     1      37.611  -2.180  13.816  0.00  0.00    +0.036 A 
ATOM     31  C   UNL     1      36.842  -2.279  14.978  0.00  0.00    -0.000 A 
BRANCH  29  32
ATOM     32  O   UNL     1      39.757  -1.993  12.730  0.00  0.00    -0.506 OA
ATOM     33  H   UNL     1      40.768  -1.932  12.757  0.00  0.00    +0.292 HD
ENDBRANCH  29  32
ENDBRANCH   1  26
BRANCH   7  34
ATOM     34  O   UNL     1      35.745  -5.110  23.081  0.00  0.00    -0.505 OA
ATOM     35  H   UNL     1      35.036  -5.290  23.782  0.00  0.00    +0.292 HD
ENDBRANCH   7  34
TORSDOF 8
ENDMDL
MODEL       10
REMARK  Name = CMP_1
REMARK  8 active torsions:
REMARK  status: ('A' for Active; 'I' for Inactive)
REMARK    1  A    between atoms: C_1  and  C_17
REMARK    2  A    between atoms: C_5  and  O_6
REMARK    3  A    between atoms: C_11  and  C_21
REMARK    4  A    between atoms: O_13  and  C_14
REMARK    5  A    between atoms: C_24  and  O_27
REMARK    6  A    between atoms: O_27  and  C_28
REMARK    7  A    between atoms: C_28  and  C_29
REMARK    8  A    between atoms: C_29  and  N_30
REMARK                            x       y       z     vdW  Elec       q    Type
REMARK                         _______ _______ _______ _____ _____    ______ ____
ROOT
ATOM      1  C   UNL     1      36.908  -2.120  17.349  0.00  0.00    +0.118 C 
ATOM      2  C   UNL     1      35.903  -0.962  17.565  0.00  0.00    +0.202 C 
ATOM      3  O   UNL     1      35.022  -1.217  18.666  0.00  0.00    -0.473 OA
ATOM      4  C   UNL     1      35.271  -2.095  19.733  0.00  0.00    +0.145 A 
ATOM      5  C   UNL     1      36.506  -2.758  19.890  0.00  0.00    +0.063 A 
ATOM      6  C   UNL     1      36.658  -3.715  20.901  0.00  0.00    +0.046 A 
ATOM      7  C   UNL     1      35.610  -3.981  21.787  0.00  0.00    +0.134 A 
ATOM      8  C   UNL     1      34.398  -3.291  21.658  0.00  0.00    +0.040 A 
ATOM      9  C   UNL     1      34.232  -2.354  20.634  0.00  0.00    +0.041 A 
ATOM     10  S   UNL     1      37.917  -2.372  18.850  0.00  0.00    -0.103 S 
ENDROOT
BRANCH   2  11
ATOM     11  C   UNL     1      36.561   0.398  17.724  0.00  0.00    +0.019 A 
ATOM     12  C   UNL     1      36.528   1.318  16.662  0.00  0.00    +0.002 A 
ATOM     13  C   UNL     1      37.154   2.561  16.777  0.00  0.00    +0.037 A 
ATOM     14  C   UNL     1      37.825   2.909  17.963  0.00  0.00    +0.139 A 
ATOM     15  C   UNL     1      37.857   1.996  19.022  0.00  0.00    +0.037 A 
ATOM     16  C   UNL     1      37.232   0.752  18.908  0.00  0.00    +0.002 A 
BRANCH  14  17
ATOM     17  O   UNL     1      38.467   4.144  18.131  0.00  0.00    -0.474 OA
BRANCH  17  18
ATOM     18  C   UNL     1      39.016   4.922  17.070  0.00  0.00    +0.223 C 
BRANCH  18  19
ATOM     19  C   UNL     1      38.350   6.308  17.024  0.00  0.00    +0.120 C 
BRANCH  19  20
ATOM     20  N   UNL     1      38.225   6.986  18.336  0.00  0.00    -0.270 NA
ATOM     21  C   UNL     1      39.516   7.166  19.028  0.00  0.00    +0.072 C 
ATOM     22  C   UNL     1      39.267   7.593  20.479  0.00  0.00    +0.017 C 
ATOM     23  C   UNL     1      38.422   8.873  20.526  0.00  0.00    +0.003 C 
ATOM     24  C   UNL     1      37.136   8.711  19.707  0.00  0.00    +0.017 C 
ATOM     25  C   UNL     1      37.460   8.246  18.284  0.00  0.00    +0.072 C 
ENDBRANCH  19  20
ENDBRANCH  18  19
ENDBRANCH  17  18
ENDBRANCH  14  17
ENDBRANCH   2  11
BRANCH   1  26
ATOM     26  C   UNL     1      37.769  -1.910  16.117  0.00  0.00    -0.008 A 
ATOM     27  C   UNL     1      39.161  -1.771  16.262  0.00  0.00    -0.000 A 
ATOM     28  C   UNL     1      39.982  -1.626  15.140  0.00  0.00    +0.036 A 
ATOM     29  C   UNL     1      39.425  -1.631  13.855  0.00  0.00    +0.134 A 
ATOM     30  C   UNL     1      38.046  -1.784  13.698  0.00  0.00    +0.036 A 
ATOM     31  C   UNL     1      37.221  -1.927  14.818  0.00  0.00    -0.000 A 
BRANCH  29  32
ATOM     32  O   UNL     1      40.234  -1.491  12.730  0.00  0.00    -0.506 OA
ATOM     33  H   UNL     1      41.239  -1.383  12.810  0.00  0.00    +0.292 HD
ENDBRANCH  29  32
ENDBRANCH   1  26
BRANCH   7  34
ATOM     34  O   UNL     1      35.784  -4.927  22.795  0.00  0.00    -0.505 OA
ATOM     35  H   UNL     1      35.046  -5.138  23.456  0.00  0.00    +0.292 HD
ENDBRANCH   7  34
TORSDOF 8
ENDMDL
