CHEMBL135
     RDKit          3D

 44 47  0  0  0  0  0  0  0  0999 V2000
   -2.3687    1.4053   -0.7987 C   0  0  0  0  0  0  0  0  0  0  0  0
   -2.2196    0.5162    0.4777 C   0  0  2  0  0  0  0  0  0  0  0  0
   -1.4266    1.2799    1.5599 C   0  0  0  0  0  0  0  0  0  0  0  0
    0.0552    1.4765    1.1467 C   0  0  0  0  0  0  0  0  0  0  0  0
    0.7571    0.1516    0.7119 C   0  0  2  0  0  0  0  0  0  0  0  0
    2.1916    0.3347    0.2129 C   0  0  0  0  0  0  0  0  0  0  0  0
    3.0307    1.3323    0.7558 C   0  0  0  0  0  0  0  0  0  0  0  0
    4.3642    1.4424    0.3589 C   0  0  0  0  0  0  0  0  0  0  0  0
    4.9000    0.5455   -0.5670 C   0  0  0  0  0  0  0  0  0  0  0  0
    6.2284    0.6522   -0.9731 O   0  0  0  0  0  0  0  0  0  0  0  0
    4.0997   -0.4707   -1.0882 C   0  0  0  0  0  0  0  0  0  0  0  0
    2.7587   -0.6045   -0.6930 C   0  0  0  0  0  0  0  0  0  0  0  0
    1.9441   -1.7093   -1.3314 C   0  0  0  0  0  0  0  0  0  0  0  0
    0.6032   -1.9625   -0.6374 C   0  0  0  0  0  0  0  0  0  0  0  0
   -0.0896   -0.6272   -0.3393 C   0  0  1  0  0  0  0  0  0  0  0  0
   -1.5079   -0.8215    0.2289 C   0  0  2  0  0  0  0  0  0  0  0  0
   -2.5193   -1.6611   -0.5433 C   0  0  0  0  0  0  0  0  0  0  0  0
   -3.8819   -1.2283    0.0298 C   0  0  0  0  0  0  0  0  0  0  0  0
   -3.6041    0.0040    0.9293 C   0  0  2  0  0  0  0  0  0  0  0  0
   -4.6166    0.9833    0.8804 O   0  0  0  0  0  0  0  0  0  0  0  0
   -2.9111    2.3418   -0.5490 H   0  0  0  0  0  0  0  0  0  0  0  0
   -1.3993    1.7174   -1.2290 H   0  0  0  0  0  0  0  0  0  0  0  0
   -2.9365    0.8870   -1.5987 H   0  0  0  0  0  0  0  0  0  0  0  0
   -1.8939    2.2711    1.7470 H   0  0  0  0  0  0  0  0  0  0  0  0
   -1.4541    0.7180    2.5200 H   0  0  0  0  0  0  0  0  0  0  0  0
    0.1342    2.2314    0.3367 H   0  0  0  0  0  0  0  0  0  0  0  0
    0.5678    1.8965    2.0364 H   0  0  0  0  0  0  0  0  0  0  0  0
    0.8310   -0.4765    1.6289 H   0  0  0  0  0  0  0  0  0  0  0  0
    2.6741    2.0327    1.4948 H   0  0  0  0  0  0  0  0  0  0  0  0
    4.9841    2.2239    0.7801 H   0  0  0  0  0  0  0  0  0  0  0  0
    6.8361    1.3784   -0.6122 H   0  0  0  0  0  0  0  0  0  0  0  0
    4.5263   -1.1624   -1.8050 H   0  0  0  0  0  0  0  0  0  0  0  0
    1.7537   -1.4322   -2.3913 H   0  0  0  0  0  0  0  0  0  0  0  0
    2.5276   -2.6558   -1.3292 H   0  0  0  0  0  0  0  0  0  0  0  0
    0.7673   -2.5332    0.3036 H   0  0  0  0  0  0  0  0  0  0  0  0
   -0.0257   -2.5845   -1.3098 H   0  0  0  0  0  0  0  0  0  0  0  0
   -0.1376   -0.0597   -1.2924 H   0  0  0  0  0  0  0  0  0  0  0  0
   -1.3816   -1.3455    1.2096 H   0  0  0  0  0  0  0  0  0  0  0  0
   -2.3466   -2.7474   -0.3814 H   0  0  0  0  0  0  0  0  0  0  0  0
   -2.4618   -1.4409   -1.6316 H   0  0  0  0  0  0  0  0  0  0  0  0
   -4.3284   -2.0477    0.6343 H   0  0  0  0  0  0  0  0  0  0  0  0
   -4.5757   -0.9905   -0.8053 H   0  0  0  0  0  0  0  0  0  0  0  0
   -3.5351   -0.3522    1.9822 H   0  0  0  0  0  0  0  0  0  0  0  0
   -4.9134    1.0914   -0.0595 H   0  0  0  0  0  0  0  0  0  0  0  0
  2  1  1  6
  2  3  1  0
  3  4  1  0
  4  5  1  0
  5  6  1  0
  6  7  2  0
  7  8  1  0
  8  9  2  0
  9 10  1  0
  9 11  1  0
 11 12  2  0
 12 13  1  0
 13 14  1  0
 14 15  1  0
 15 16  1  0
 16 17  1  0
 17 18  1  0
 18 19  1  0
 19 20  1  0
 16  2  1  0
 19  2  1  0
 15  5  1  0
 12  6  1  0
  1 21  1  0
  1 22  1  0
  1 23  1  0
  3 24  1  0
  3 25  1  0
  4 26  1  0
  4 27  1  0
  5 28  1  1
  7 29  1  0
  8 30  1  0
 10 31  1  0
 11 32  1  0
 13 33  1  0
 13 34  1  0
 14 35  1  0
 14 36  1  0
 15 37  1  6
 16 38  1  1
 17 39  1  0
 17 40  1  0
 18 41  1  0
 18 42  1  0
 19 43  1  1
 20 44  1  0
M  END
$$$$
CHEMBL362718
     RDKit          3D

 60 64  0  0  0  0  0  0  0  0999 V2000
   -3.0914    4.7777   -0.3842 O   0  0  0  0  0  0  0  0  0  0  0  0
   -3.1883    3.4616    0.0616 C   0  0  0  0  0  0  0  0  0  0  0  0
   -4.0349    2.5691   -0.5998 C   0  0  0  0  0  0  0  0  0  0  0  0
   -4.1407    1.2438   -0.1677 C   0  0  0  0  0  0  0  0  0  0  0  0
   -3.4030    0.7913    0.9443 C   0  0  0  0  0  0  0  0  0  0  0  0
   -3.4371   -0.6565    1.4177 C   0  0  1  0  0  0  0  0  0  0  0  0
   -5.1265   -1.3531    1.5380 S   0  0  0  0  0  0  0  0  0  0  0  0
   -5.3502   -1.8944   -0.1702 C   0  0  0  0  0  0  0  0  0  0  0  0
   -6.6604   -2.1230   -0.6126 C   0  0  0  0  0  0  0  0  0  0  0  0
   -6.9087   -2.5227   -1.9289 C   0  0  0  0  0  0  0  0  0  0  0  0
   -8.2191   -2.7505   -2.3432 O   0  0  0  0  0  0  0  0  0  0  0  0
   -5.8404   -2.6877   -2.8175 C   0  0  0  0  0  0  0  0  0  0  0  0
   -4.5328   -2.4466   -2.3912 C   0  0  0  0  0  0  0  0  0  0  0  0
   -4.2766   -2.0495   -1.0738 C   0  0  0  0  0  0  0  0  0  0  0  0
   -2.9569   -1.7641   -0.7161 O   0  0  0  0  0  0  0  0  0  0  0  0
   -2.5152   -1.6036    0.6274 C   0  0  1  0  0  0  0  0  0  0  0  0
   -1.0776   -1.1308    0.6540 C   0  0  0  0  0  0  0  0  0  0  0  0
   -0.5820   -0.2610   -0.3338 C   0  0  0  0  0  0  0  0  0  0  0  0
    0.7276    0.2199   -0.2599 C   0  0  0  0  0  0  0  0  0  0  0  0
    1.5621   -0.1488    0.8002 C   0  0  0  0  0  0  0  0  0  0  0  0
    2.8662    0.3650    0.8294 O   0  0  0  0  0  0  0  0  0  0  0  0
    3.8310    0.0636    1.8347 C   0  0  0  0  0  0  0  0  0  0  0  0
    5.1504    0.7850    1.5360 C   0  0  0  0  0  0  0  0  0  0  0  0
    5.9636    0.0602    0.5312 N   0  0  0  0  0  0  0  0  0  0  0  0
    5.3212    0.0757   -0.8083 C   0  0  0  0  0  0  0  0  0  0  0  0
    6.3024   -0.2422   -1.9391 C   0  0  0  0  0  0  0  0  0  0  0  0
    7.4979    1.1203   -2.1955 S   0  0  0  0  0  0  0  0  0  0  0  0
    7.6061    1.6878   -0.4581 C   0  0  0  0  0  0  0  0  0  0  0  0
    7.3698    0.5398    0.5283 C   0  0  0  0  0  0  0  0  0  0  0  0
    1.0674   -1.0119    1.7956 C   0  0  0  0  0  0  0  0  0  0  0  0
   -0.2432   -1.4924    1.7238 C   0  0  0  0  0  0  0  0  0  0  0  0
   -2.5501    1.7009    1.5997 C   0  0  0  0  0  0  0  0  0  0  0  0
   -2.4451    3.0240    1.1633 C   0  0  0  0  0  0  0  0  0  0  0  0
   -2.4848    5.4484    0.0733 H   0  0  0  0  0  0  0  0  0  0  0  0
   -4.6102    2.9023   -1.4543 H   0  0  0  0  0  0  0  0  0  0  0  0
   -4.8022    0.5895   -0.7096 H   0  0  0  0  0  0  0  0  0  0  0  0
   -3.0750   -0.6738    2.4698 H   0  0  0  0  0  0  0  0  0  0  0  0
   -7.4916   -1.9926    0.0693 H   0  0  0  0  0  0  0  0  0  0  0  0
   -8.4323   -3.0393   -3.2908 H   0  0  0  0  0  0  0  0  0  0  0  0
   -6.0226   -2.9936   -3.8398 H   0  0  0  0  0  0  0  0  0  0  0  0
   -3.7137   -2.5599   -3.0899 H   0  0  0  0  0  0  0  0  0  0  0  0
   -2.5599   -2.6059    1.1104 H   0  0  0  0  0  0  0  0  0  0  0  0
   -1.2127    0.0592   -1.1537 H   0  0  0  0  0  0  0  0  0  0  0  0
    1.0945    0.8896   -1.0274 H   0  0  0  0  0  0  0  0  0  0  0  0
    4.0059   -1.0335    1.8832 H   0  0  0  0  0  0  0  0  0  0  0  0
    3.4464    0.4111    2.8184 H   0  0  0  0  0  0  0  0  0  0  0  0
    4.9543    1.8325    1.2151 H   0  0  0  0  0  0  0  0  0  0  0  0
    5.7010    0.8339    2.5016 H   0  0  0  0  0  0  0  0  0  0  0  0
    4.5271   -0.7006   -0.8305 H   0  0  0  0  0  0  0  0  0  0  0  0
    4.8430    1.0592   -1.0188 H   0  0  0  0  0  0  0  0  0  0  0  0
    6.8492   -1.1833   -1.7173 H   0  0  0  0  0  0  0  0  0  0  0  0
    5.7380   -0.3893   -2.8840 H   0  0  0  0  0  0  0  0  0  0  0  0
    6.8675    2.4987   -0.2869 H   0  0  0  0  0  0  0  0  0  0  0  0
    8.6202    2.1088   -0.2950 H   0  0  0  0  0  0  0  0  0  0  0  0
    8.0384   -0.3080    0.2654 H   0  0  0  0  0  0  0  0  0  0  0  0
    7.6949    0.8633    1.5416 H   0  0  0  0  0  0  0  0  0  0  0  0
    1.6836   -1.3105    2.6325 H   0  0  0  0  0  0  0  0  0  0  0  0
   -0.6113   -2.1413    2.5090 H   0  0  0  0  0  0  0  0  0  0  0  0
   -1.9515    1.3819    2.4441 H   0  0  0  0  0  0  0  0  0  0  0  0
   -1.7815    3.7062    1.6791 H   0  0  0  0  0  0  0  0  0  0  0  0
  1  2  1  0
  2  3  2  0
  3  4  1  0
  4  5  2  0
  5  6  1  0
  6  7  1  0
  7  8  1  0
  8  9  2  0
  9 10  1  0
 10 11  1  0
 10 12  2  0
 12 13  1  0
 13 14  2  0
 14 15  1  0
 15 16  1  0
 16 17  1  0
 17 18  2  0
 18 19  1  0
 19 20  2  0
 20 21  1  0
 21 22  1  0
 22 23  1  0
 23 24  1  0
 24 25  1  0
 25 26  1  0
 26 27  1  0
 27 28  1  0
 28 29  1  0
 20 30  1  0
 30 31  2  0
  5 32  1  0
 32 33  2  0
 33  2  1  0
 16  6  1  0
 31 17  1  0
 14  8  1  0
 29 24  1  0
  1 34  1  0
  3 35  1  0
  4 36  1  0
  6 37  1  1
  9 38  1  0
 11 39  1  0
 12 40  1  0
 13 41  1  0
 16 42  1  1
 18 43  1  0
 19 44  1  0
 22 45  1  0
 22 46  1  0
 23 47  1  0
 23 48  1  0
 25 49  1  0
 25 50  1  0
 26 51  1  0
 26 52  1  0
 28 53  1  0
 28 54  1  0
 29 55  1  0
 29 56  1  0
 30 57  1  0
 31 58  1  0
 32 59  1  0
 33 60  1  0
M  END
$$$$
CHEMBL362718
     RDKit          3D

 60 64  0  0  0  0  0  0  0  0999 V2000
   -3.6416   -4.2778    1.3439 O   0  0  0  0  0  0  0  0  0  0  0  0
   -3.5220   -3.1448    0.5424 C   0  0  0  0  0  0  0  0  0  0  0  0
   -2.9230   -1.9939    1.0590 C   0  0  0  0  0  0  0  0  0  0  0  0
   -2.7963   -0.8478    0.2688 C   0  0  0  0  0  0  0  0  0  0  0  0
   -3.2718   -0.8365   -1.0603 C   0  0  0  0  0  0  0  0  0  0  0  0
   -3.1778    0.3795   -1.9777 C   0  0  1  0  0  0  0  0  0  0  0  0
   -4.8400    1.0217   -2.3703 S   0  0  0  0  0  0  0  0  0  0  0  0
   -5.1792    1.6266   -0.7170 C   0  0  0  0  0  0  0  0  0  0  0  0
   -6.4855    1.5402   -0.2200 C   0  0  0  0  0  0  0  0  0  0  0  0
   -6.7987    2.0696    1.0390 C   0  0  0  0  0  0  0  0  0  0  0  0
   -8.0976    1.9981    1.5371 O   0  0  0  0  0  0  0  0  0  0  0  0
   -5.7995    2.6804    1.8020 C   0  0  0  0  0  0  0  0  0  0  0  0
   -4.4891    2.7436    1.3207 C   0  0  0  0  0  0  0  0  0  0  0  0
   -4.1656    2.2010    0.0719 C   0  0  0  0  0  0  0  0  0  0  0  0
   -2.8191    2.1795   -0.3167 O   0  0  0  0  0  0  0  0  0  0  0  0
   -2.2993    1.5725   -1.5074 C   0  0  1  0  0  0  0  0  0  0  0  0
   -0.8180    1.2668   -1.3112 C   0  0  0  0  0  0  0  0  0  0  0  0
   -0.2043    0.0831   -1.7744 C   0  0  0  0  0  0  0  0  0  0  0  0
    1.1640   -0.1297   -1.5863 C   0  0  0  0  0  0  0  0  0  0  0  0
    1.9553    0.8321   -0.9538 C   0  0  0  0  0  0  0  0  0  0  0  0
    3.3208    0.5637   -0.7852 O   0  0  0  0  0  0  0  0  0  0  0  0
    4.2387    1.4270   -0.1185 C   0  0  0  0  0  0  0  0  0  0  0  0
    5.6314    0.7874   -0.0813 C   0  0  0  0  0  0  0  0  0  0  0  0
    5.7953   -0.1367    1.0674 N   0  0  0  0  0  0  0  0  0  0  0  0
    7.2190   -0.4657    1.3431 C   0  0  0  0  0  0  0  0  0  0  0  0
    7.6371   -1.8889    0.9338 C   0  0  0  0  0  0  0  0  0  0  0  0
    6.9448   -2.3334   -0.6881 S   0  0  0  0  0  0  0  0  0  0  0  0
    5.1838   -2.2413   -0.1841 C   0  0  0  0  0  0  0  0  0  0  0  0
    4.9197   -1.3290    1.0290 C   0  0  0  0  0  0  0  0  0  0  0  0
    1.3603    2.0267   -0.5144 C   0  0  0  0  0  0  0  0  0  0  0  0
   -0.0078    2.2420   -0.7000 C   0  0  0  0  0  0  0  0  0  0  0  0
   -3.8685   -2.0053   -1.5683 C   0  0  0  0  0  0  0  0  0  0  0  0
   -3.9944   -3.1482   -0.7745 C   0  0  0  0  0  0  0  0  0  0  0  0
   -4.0713   -5.1279    0.9981 H   0  0  0  0  0  0  0  0  0  0  0  0
   -2.5523   -1.9876    2.0762 H   0  0  0  0  0  0  0  0  0  0  0  0
   -2.3162    0.0123    0.7084 H   0  0  0  0  0  0  0  0  0  0  0  0
   -2.7741    0.0361   -2.9544 H   0  0  0  0  0  0  0  0  0  0  0  0
   -7.2620    1.0831   -0.8205 H   0  0  0  0  0  0  0  0  0  0  0  0
   -8.8436    1.5599    1.0096 H   0  0  0  0  0  0  0  0  0  0  0  0
   -6.0355    3.0929    2.7747 H   0  0  0  0  0  0  0  0  0  0  0  0
   -3.7152    3.1890    1.9330 H   0  0  0  0  0  0  0  0  0  0  0  0
   -2.3473    2.3391   -2.3121 H   0  0  0  0  0  0  0  0  0  0  0  0
   -0.7648   -0.6905   -2.2767 H   0  0  0  0  0  0  0  0  0  0  0  0
    1.6140   -1.0504   -1.9363 H   0  0  0  0  0  0  0  0  0  0  0  0
    4.2974    2.3870   -0.6765 H   0  0  0  0  0  0  0  0  0  0  0  0
    3.8912    1.6347    0.9171 H   0  0  0  0  0  0  0  0  0  0  0  0
    6.3546    1.6270    0.0189 H   0  0  0  0  0  0  0  0  0  0  0  0
    5.8510    0.2852   -1.0473 H   0  0  0  0  0  0  0  0  0  0  0  0
    7.3947   -0.3566    2.4343 H   0  0  0  0  0  0  0  0  0  0  0  0
    7.9092    0.2550    0.8508 H   0  0  0  0  0  0  0  0  0  0  0  0
    7.3052   -2.6285    1.6935 H   0  0  0  0  0  0  0  0  0  0  0  0
    8.7446   -1.9453    0.8770 H   0  0  0  0  0  0  0  0  0  0  0  0
    4.8271   -3.2668    0.0488 H   0  0  0  0  0  0  0  0  0  0  0  0
    4.5988   -1.8770   -1.0544 H   0  0  0  0  0  0  0  0  0  0  0  0
    5.0620   -1.9141    1.9639 H   0  0  0  0  0  0  0  0  0  0  0  0
    3.8522   -1.0291    1.0488 H   0  0  0  0  0  0  0  0  0  0  0  0
    1.9459    2.7979   -0.0331 H   0  0  0  0  0  0  0  0  0  0  0  0
   -0.4366    3.1778   -0.3633 H   0  0  0  0  0  0  0  0  0  0  0  0
   -4.2409   -2.0300   -2.5851 H   0  0  0  0  0  0  0  0  0  0  0  0
   -4.4594   -4.0357   -1.1845 H   0  0  0  0  0  0  0  0  0  0  0  0
  1  2  1  0
  2  3  2  0
  3  4  1  0
  4  5  2  0
  5  6  1  0
  6  7  1  0
  7  8  1  0
  8  9  2  0
  9 10  1  0
 10 11  1  0
 10 12  2  0
 12 13  1  0
 13 14  2  0
 14 15  1  0
 15 16  1  0
 16 17  1  0
 17 18  2  0
 18 19  1  0
 19 20  2  0
 20 21  1  0
 21 22  1  0
 22 23  1  0
 23 24  1  0
 24 25  1  0
 25 26  1  0
 26 27  1  0
 27 28  1  0
 28 29  1  0
 20 30  1  0
 30 31  2  0
  5 32  1  0
 32 33  2  0
 33  2  1  0
 16  6  1  0
 31 17  1  0
 14  8  1  0
 29 24  1  0
  1 34  1  0
  3 35  1  0
  4 36  1  0
  6 37  1  6
  9 38  1  0
 11 39  1  0
 12 40  1  0
 13 41  1  0
 16 42  1  6
 18 43  1  0
 19 44  1  0
 22 45  1  0
 22 46  1  0
 23 47  1  0
 23 48  1  0
 25 49  1  0
 25 50  1  0
 26 51  1  0
 26 52  1  0
 28 53  1  0
 28 54  1  0
 29 55  1  0
 29 56  1  0
 30 57  1  0
 31 58  1  0
 32 59  1  0
 33 60  1  0
M  END
$$$$
CHEMBL184679
     RDKit          3D

 59 63  0  0  0  0  0  0  0  0999 V2000
   -5.0198    2.7534   -2.7627 O   0  0  0  0  0  0  0  0  0  0  0  0
   -4.5372    2.1384   -1.6088 C   0  0  0  0  0  0  0  0  0  0  0  0
   -4.9720    2.5500   -0.3439 C   0  0  0  0  0  0  0  0  0  0  0  0
   -4.4857    1.9191    0.8048 C   0  0  0  0  0  0  0  0  0  0  0  0
   -3.5543    0.8668    0.7116 C   0  0  0  0  0  0  0  0  0  0  0  0
   -3.1177    0.1832    2.0027 C   0  0  1  0  0  0  0  0  0  0  0  0
   -4.4404   -0.8929    2.6471 S   0  0  0  0  0  0  0  0  0  0  0  0
   -4.2759   -2.1356    1.3644 C   0  0  0  0  0  0  0  0  0  0  0  0
   -5.4282   -2.7532    0.8650 C   0  0  0  0  0  0  0  0  0  0  0  0
   -5.3238   -3.7813   -0.0811 C   0  0  0  0  0  0  0  0  0  0  0  0
   -6.4655   -4.4160   -0.5680 O   0  0  0  0  0  0  0  0  0  0  0  0
   -4.0637   -4.1893   -0.5271 C   0  0  0  0  0  0  0  0  0  0  0  0
   -2.9129   -3.5565   -0.0507 C   0  0  0  0  0  0  0  0  0  0  0  0
   -3.0110   -2.5114    0.8753 C   0  0  0  0  0  0  0  0  0  0  0  0
   -1.8441   -1.8162    1.2218 O   0  0  0  0  0  0  0  0  0  0  0  0
   -1.7817   -0.6113    1.9983 C   0  0  1  0  0  0  0  0  0  0  0  0
   -0.5973    0.2463    1.5818 C   0  0  0  0  0  0  0  0  0  0  0  0
    0.1623   -0.0502    0.4346 C   0  0  0  0  0  0  0  0  0  0  0  0
    1.2679    0.7319    0.0887 C   0  0  0  0  0  0  0  0  0  0  0  0
    1.6348    1.8345    0.8805 C   0  0  0  0  0  0  0  0  0  0  0  0
    2.7394    2.6497    0.5816 O   0  0  0  0  0  0  0  0  0  0  0  0
    3.7649    2.3342   -0.3617 C   0  0  0  0  0  0  0  0  0  0  0  0
    4.6672    1.2213    0.1842 C   0  0  0  0  0  0  0  0  0  0  0  0
    5.7894    0.9561   -0.7382 N   0  0  0  0  0  0  0  0  0  0  0  0
    5.3790    0.2215   -1.9522 C   0  0  0  0  0  0  0  0  0  0  0  0
    6.4559   -0.8243   -2.2538 C   0  0  0  0  0  0  0  0  0  0  0  0
    7.5384   -0.5986   -1.2145 C   0  0  1  0  0  0  0  0  0  0  0  0
    8.5388    0.2044   -1.7424 F   0  0  0  0  0  0  0  0  0  0  0  0
    6.8241    0.1350   -0.0968 C   0  0  0  0  0  0  0  0  0  0  0  0
    0.8734    2.1401    2.0136 C   0  0  0  0  0  0  0  0  0  0  0  0
   -0.2217    1.3483    2.3710 C   0  0  0  0  0  0  0  0  0  0  0  0
   -3.1291    0.4568   -0.5700 C   0  0  0  0  0  0  0  0  0  0  0  0
   -3.6125    1.0958   -1.7168 C   0  0  0  0  0  0  0  0  0  0  0  0
   -5.7195    3.4860   -2.7234 H   0  0  0  0  0  0  0  0  0  0  0  0
   -5.6907    3.3555   -0.2479 H   0  0  0  0  0  0  0  0  0  0  0  0
   -4.8443    2.2474    1.7737 H   0  0  0  0  0  0  0  0  0  0  0  0
   -3.0071    0.9832    2.7676 H   0  0  0  0  0  0  0  0  0  0  0  0
   -6.4029   -2.4503    1.2292 H   0  0  0  0  0  0  0  0  0  0  0  0
   -7.3950   -4.1429   -0.2645 H   0  0  0  0  0  0  0  0  0  0  0  0
   -3.9768   -4.9843   -1.2565 H   0  0  0  0  0  0  0  0  0  0  0  0
   -1.9430   -3.8532   -0.4291 H   0  0  0  0  0  0  0  0  0  0  0  0
   -1.5915   -0.9249    3.0502 H   0  0  0  0  0  0  0  0  0  0  0  0
   -0.0846   -0.8917   -0.1946 H   0  0  0  0  0  0  0  0  0  0  0  0
    1.8271    0.4670   -0.7959 H   0  0  0  0  0  0  0  0  0  0  0  0
    4.3804    3.2451   -0.5197 H   0  0  0  0  0  0  0  0  0  0  0  0
    3.3244    2.0604   -1.3438 H   0  0  0  0  0  0  0  0  0  0  0  0
    4.0786    0.2962    0.3726 H   0  0  0  0  0  0  0  0  0  0  0  0
    5.0654    1.5663    1.1659 H   0  0  0  0  0  0  0  0  0  0  0  0
    4.3921   -0.2905   -1.8373 H   0  0  0  0  0  0  0  0  0  0  0  0
    5.2984    0.9430   -2.7981 H   0  0  0  0  0  0  0  0  0  0  0  0
    6.0295   -1.8496   -2.1396 H   0  0  0  0  0  0  0  0  0  0  0  0
    6.8578   -0.7157   -3.2874 H   0  0  0  0  0  0  0  0  0  0  0  0
    7.9806   -1.5576   -0.8613 H   0  0  0  0  0  0  0  0  0  0  0  0
    7.5284    0.7804    0.4744 H   0  0  0  0  0  0  0  0  0  0  0  0
    6.3771   -0.6179    0.5948 H   0  0  0  0  0  0  0  0  0  0  0  0
    1.1466    2.9845    2.6355 H   0  0  0  0  0  0  0  0  0  0  0  0
   -0.7694    1.5914    3.2742 H   0  0  0  0  0  0  0  0  0  0  0  0
   -2.4280   -0.3502   -0.7024 H   0  0  0  0  0  0  0  0  0  0  0  0
   -3.2745    0.7724   -2.6932 H   0  0  0  0  0  0  0  0  0  0  0  0
  1  2  1  0
  2  3  2  0
  3  4  1  0
  4  5  2  0
  5  6  1  0
  6  7  1  0
  7  8  1  0
  8  9  2  0
  9 10  1  0
 10 11  1  0
 10 12  2  0
 12 13  1  0
 13 14  2  0
 14 15  1  0
 15 16  1  0
 16 17  1  0
 17 18  2  0
 18 19  1  0
 19 20  2  0
 20 21  1  0
 21 22  1  0
 22 23  1  0
 23 24  1  0
 24 25  1  0
 25 26  1  0
 26 27  1  0
 27 28  1  0
 27 29  1  0
 20 30  1  0
 30 31  2  0
  5 32  1  0
 32 33  2  0
 33  2  1  0
 16  6  1  0
 31 17  1  0
 14  8  1  0
 29 24  1  0
  1 34  1  0
  3 35  1  0
  4 36  1  0
  6 37  1  1
  9 38  1  0
 11 39  1  0
 12 40  1  0
 13 41  1  0
 16 42  1  1
 18 43  1  0
 19 44  1  0
 22 45  1  0
 22 46  1  0
 23 47  1  0
 23 48  1  0
 25 49  1  0
 25 50  1  0
 26 51  1  0
 26 52  1  0
 27 53  1  1
 29 54  1  0
 29 55  1  0
 30 56  1  0
 31 57  1  0
 32 58  1  0
 33 59  1  0
M  END
$$$$
CHEMBL184679
     RDKit          3D

 59 63  0  0  0  0  0  0  0  0999 V2000
   -3.4380   -5.5468   -0.9068 O   0  0  0  0  0  0  0  0  0  0  0  0
   -3.5243   -4.1636   -0.7662 C   0  0  0  0  0  0  0  0  0  0  0  0
   -4.3233   -3.4284   -1.6462 C   0  0  0  0  0  0  0  0  0  0  0  0
   -4.4183   -2.0396   -1.5184 C   0  0  0  0  0  0  0  0  0  0  0  0
   -3.7240   -1.3662   -0.4977 C   0  0  0  0  0  0  0  0  0  0  0  0
   -3.8021    0.1482   -0.4170 C   0  0  1  0  0  0  0  0  0  0  0  0
   -3.8255    0.7375    1.3105 S   0  0  0  0  0  0  0  0  0  0  0  0
   -4.1194    2.4489    0.8589 C   0  0  0  0  0  0  0  0  0  0  0  0
   -4.9364    3.2313    1.6846 C   0  0  0  0  0  0  0  0  0  0  0  0
   -5.1182    4.5911    1.4156 C   0  0  0  0  0  0  0  0  0  0  0  0
   -5.9225    5.3574    2.2562 O   0  0  0  0  0  0  0  0  0  0  0  0
   -4.4847    5.1710    0.3096 C   0  0  0  0  0  0  0  0  0  0  0  0
   -3.6896    4.3890   -0.5322 C   0  0  0  0  0  0  0  0  0  0  0  0
   -3.5173    3.0232   -0.2793 C   0  0  0  0  0  0  0  0  0  0  0  0
   -2.7885    2.2620   -1.2066 O   0  0  0  0  0  0  0  0  0  0  0  0
   -2.6585    0.8346   -1.2051 C   0  0  1  0  0  0  0  0  0  0  0  0
   -1.2705    0.4345   -0.7378 C   0  0  0  0  0  0  0  0  0  0  0  0
   -0.6035   -0.6323   -1.3650 C   0  0  0  0  0  0  0  0  0  0  0  0
    0.6555   -1.0442   -0.9209 C   0  0  0  0  0  0  0  0  0  0  0  0
    1.2739   -0.3922    0.1616 C   0  0  0  0  0  0  0  0  0  0  0  0
    2.5328   -0.7715    0.6489 O   0  0  0  0  0  0  0  0  0  0  0  0
    3.3253   -1.8229    0.1018 C   0  0  0  0  0  0  0  0  0  0  0  0
    4.6350   -1.9435    0.8806 C   0  0  0  0  0  0  0  0  0  0  0  0
    5.3496   -0.6521    0.9230 N   0  0  0  0  0  0  0  0  0  0  0  0
    5.9334   -0.2798   -0.3716 C   0  0  0  0  0  0  0  0  0  0  0  0
    7.1524    0.5845   -0.0781 C   0  0  0  0  0  0  0  0  0  0  0  0
    7.4606    0.3685    1.3961 C   0  0  1  0  0  0  0  0  0  0  0  0
    7.2528    1.5419    2.1046 F   0  0  0  0  0  0  0  0  0  0  0  0
    6.4789   -0.6976    1.8541 C   0  0  0  0  0  0  0  0  0  0  0  0
    0.6150    0.6744    0.7817 C   0  0  0  0  0  0  0  0  0  0  0  0
   -0.6443    1.0872    0.3389 C   0  0  0  0  0  0  0  0  0  0  0  0
   -2.9091   -2.1147    0.3761 C   0  0  0  0  0  0  0  0  0  0  0  0
   -2.8154   -3.5028    0.2444 C   0  0  0  0  0  0  0  0  0  0  0  0
   -2.8666   -6.1076   -0.2854 H   0  0  0  0  0  0  0  0  0  0  0  0
   -4.8669   -3.9333   -2.4346 H   0  0  0  0  0  0  0  0  0  0  0  0
   -5.0311   -1.4881   -2.2207 H   0  0  0  0  0  0  0  0  0  0  0  0
   -4.7672    0.4669   -0.8718 H   0  0  0  0  0  0  0  0  0  0  0  0
   -5.4097    2.7901    2.5530 H   0  0  0  0  0  0  0  0  0  0  0  0
   -6.0619    6.3476    2.0963 H   0  0  0  0  0  0  0  0  0  0  0  0
   -4.6171    6.2236    0.0947 H   0  0  0  0  0  0  0  0  0  0  0  0
   -3.2255    4.8405   -1.3998 H   0  0  0  0  0  0  0  0  0  0  0  0
   -2.7646    0.5183   -2.2666 H   0  0  0  0  0  0  0  0  0  0  0  0
   -1.0669   -1.1586   -2.1906 H   0  0  0  0  0  0  0  0  0  0  0  0
    1.1354   -1.8737   -1.4219 H   0  0  0  0  0  0  0  0  0  0  0  0
    2.7730   -2.7846    0.1767 H   0  0  0  0  0  0  0  0  0  0  0  0
    3.5414   -1.6167   -0.9686 H   0  0  0  0  0  0  0  0  0  0  0  0
    5.2660   -2.7425    0.4289 H   0  0  0  0  0  0  0  0  0  0  0  0
    4.3830   -2.2616    1.9173 H   0  0  0  0  0  0  0  0  0  0  0  0
    6.2544   -1.1759   -0.9510 H   0  0  0  0  0  0  0  0  0  0  0  0
    5.1913    0.2903   -0.9707 H   0  0  0  0  0  0  0  0  0  0  0  0
    6.9249    1.6541   -0.2805 H   0  0  0  0  0  0  0  0  0  0  0  0
    8.0123    0.2742   -0.7111 H   0  0  0  0  0  0  0  0  0  0  0  0
    8.5104    0.0323    1.5443 H   0  0  0  0  0  0  0  0  0  0  0  0
    6.1286   -0.5015    2.8905 H   0  0  0  0  0  0  0  0  0  0  0  0
    6.9873   -1.6901    1.8252 H   0  0  0  0  0  0  0  0  0  0  0  0
    1.0812    1.1850    1.6149 H   0  0  0  0  0  0  0  0  0  0  0  0
   -1.1274    1.9138    0.8421 H   0  0  0  0  0  0  0  0  0  0  0  0
   -2.3303   -1.6267    1.1495 H   0  0  0  0  0  0  0  0  0  0  0  0
   -2.1853   -4.0628    0.9238 H   0  0  0  0  0  0  0  0  0  0  0  0
  1  2  1  0
  2  3  2  0
  3  4  1  0
  4  5  2  0
  5  6  1  0
  6  7  1  0
  7  8  1  0
  8  9  2  0
  9 10  1  0
 10 11  1  0
 10 12  2  0
 12 13  1  0
 13 14  2  0
 14 15  1  0
 15 16  1  0
 16 17  1  0
 17 18  2  0
 18 19  1  0
 19 20  2  0
 20 21  1  0
 21 22  1  0
 22 23  1  0
 23 24  1  0
 24 25  1  0
 25 26  1  0
 26 27  1  0
 27 28  1  0
 27 29  1  0
 20 30  1  0
 30 31  2  0
  5 32  1  0
 32 33  2  0
 33  2  1  0
 16  6  1  0
 31 17  1  0
 14  8  1  0
 29 24  1  0
  1 34  1  0
  3 35  1  0
  4 36  1  0
  6 37  1  6
  9 38  1  0
 11 39  1  0
 12 40  1  0
 13 41  1  0
 16 42  1  6
 18 43  1  0
 19 44  1  0
 22 45  1  0
 22 46  1  0
 23 47  1  0
 23 48  1  0
 25 49  1  0
 25 50  1  0
 26 51  1  0
 26 52  1  0
 27 53  1  6
 29 54  1  0
 29 55  1  0
 30 56  1  0
 31 57  1  0
 32 58  1  0
 33 59  1  0
M  END
$$$$
CHEMBL185114
     RDKit          3D

 60 64  0  0  0  0  0  0  0  0999 V2000
   -6.1299    1.3700   -0.7414 O   0  0  0  0  0  0  0  0  0  0  0  0
   -5.2595    0.7054    0.1186 C   0  0  0  0  0  0  0  0  0  0  0  0
   -5.4088    0.8110    1.5016 C   0  0  0  0  0  0  0  0  0  0  0  0
   -4.5259    0.1458    2.3540 C   0  0  0  0  0  0  0  0  0  0  0  0
   -3.4715   -0.6308    1.8384 C   0  0  0  0  0  0  0  0  0  0  0  0
   -2.5529   -1.3421    2.8257 C   0  0  1  0  0  0  0  0  0  0  0  0
   -3.3512   -2.8217    3.5267 S   0  0  0  0  0  0  0  0  0  0  0  0
   -3.2655   -3.7760    2.0166 C   0  0  0  0  0  0  0  0  0  0  0  0
   -4.3404   -4.6035    1.6734 C   0  0  0  0  0  0  0  0  0  0  0  0
   -4.2718   -5.4163    0.5387 C   0  0  0  0  0  0  0  0  0  0  0  0
   -5.3463   -6.2388    0.2153 O   0  0  0  0  0  0  0  0  0  0  0  0
   -3.1183   -5.4019   -0.2552 C   0  0  0  0  0  0  0  0  0  0  0  0
   -2.0541   -4.5574    0.0711 C   0  0  0  0  0  0  0  0  0  0  0  0
   -2.1309   -3.7213    1.1904 C   0  0  0  0  0  0  0  0  0  0  0  0
   -1.1056   -2.7902    1.4001 O   0  0  0  0  0  0  0  0  0  0  0  0
   -1.1220   -1.7076    2.3421 C   0  0  1  0  0  0  0  0  0  0  0  0
   -0.3754   -0.4994    1.7947 C   0  0  0  0  0  0  0  0  0  0  0  0
    0.1365   -0.4809    0.4814 C   0  0  0  0  0  0  0  0  0  0  0  0
    0.8091    0.6419   -0.0072 C   0  0  0  0  0  0  0  0  0  0  0  0
    0.9888    1.7738    0.8116 C   0  0  0  0  0  0  0  0  0  0  0  0
    1.6469    2.9330    0.3711 O   0  0  0  0  0  0  0  0  0  0  0  0
    2.4151    3.0463   -0.8265 C   0  0  0  0  0  0  0  0  0  0  0  0
    3.7570    2.3265   -0.6686 C   0  0  0  0  0  0  0  0  0  0  0  0
    4.5152    2.3231   -1.9341 N   0  0  0  0  0  0  0  0  0  0  0  0
    5.6916    1.4451   -1.8566 C   0  0  0  0  0  0  0  0  0  0  0  0
    6.8456    2.1352   -2.5756 C   0  0  0  0  0  0  0  0  0  0  0  0
    6.2678    3.4210   -3.1346 C   0  0  1  0  0  0  0  0  0  0  0  0
    5.9016    3.2461   -4.4777 O   0  0  0  0  0  0  0  0  0  0  0  0
    5.0268    3.6501   -2.2949 C   0  0  0  0  0  0  0  0  0  0  0  0
    0.4908    1.7551    2.1184 C   0  0  0  0  0  0  0  0  0  0  0  0
   -0.1728    0.6284    2.6095 C   0  0  0  0  0  0  0  0  0  0  0  0
   -3.3419   -0.7426    0.4419 C   0  0  0  0  0  0  0  0  0  0  0  0
   -4.2273   -0.0740   -0.4059 C   0  0  0  0  0  0  0  0  0  0  0  0
   -6.8928    1.9375   -0.3932 H   0  0  0  0  0  0  0  0  0  0  0  0
   -6.2136    1.4067    1.9223 H   0  0  0  0  0  0  0  0  0  0  0  0
   -4.6654    0.2355    3.4233 H   0  0  0  0  0  0  0  0  0  0  0  0
   -2.4247   -0.6621    3.6952 H   0  0  0  0  0  0  0  0  0  0  0  0
   -5.2196   -4.6347    2.3004 H   0  0  0  0  0  0  0  0  0  0  0  0
   -5.3349   -6.8264   -0.6106 H   0  0  0  0  0  0  0  0  0  0  0  0
   -3.0514   -6.0300   -1.1343 H   0  0  0  0  0  0  0  0  0  0  0  0
   -1.1788   -4.5256   -0.5689 H   0  0  0  0  0  0  0  0  0  0  0  0
   -0.5556   -2.0569    3.2332 H   0  0  0  0  0  0  0  0  0  0  0  0
    0.0210   -1.3307   -0.1770 H   0  0  0  0  0  0  0  0  0  0  0  0
    1.1821    0.6157   -1.0226 H   0  0  0  0  0  0  0  0  0  0  0  0
    2.6023    4.1243   -1.0116 H   0  0  0  0  0  0  0  0  0  0  0  0
    1.8496    2.6574   -1.6966 H   0  0  0  0  0  0  0  0  0  0  0  0
    3.5529    1.2770   -0.3644 H   0  0  0  0  0  0  0  0  0  0  0  0
    4.3418    2.8039    0.1486 H   0  0  0  0  0  0  0  0  0  0  0  0
    5.4554    0.4802   -2.3499 H   0  0  0  0  0  0  0  0  0  0  0  0
    5.9904    1.2353   -0.8058 H   0  0  0  0  0  0  0  0  0  0  0  0
    7.2662    1.4908   -3.3771 H   0  0  0  0  0  0  0  0  0  0  0  0
    7.6523    2.3731   -1.8503 H   0  0  0  0  0  0  0  0  0  0  0  0
    6.9797    4.2747   -3.0283 H   0  0  0  0  0  0  0  0  0  0  0  0
    6.7230    3.3819   -5.0127 H   0  0  0  0  0  0  0  0  0  0  0  0
    4.2616    4.2140   -2.8667 H   0  0  0  0  0  0  0  0  0  0  0  0
    5.3095    4.2371   -1.3926 H   0  0  0  0  0  0  0  0  0  0  0  0
    0.6293    2.6172    2.7616 H   0  0  0  0  0  0  0  0  0  0  0  0
   -0.5325    0.6421    3.6275 H   0  0  0  0  0  0  0  0  0  0  0  0
   -2.5600   -1.3310   -0.0087 H   0  0  0  0  0  0  0  0  0  0  0  0
   -4.1087   -0.1605   -1.4779 H   0  0  0  0  0  0  0  0  0  0  0  0
  1  2  1  0
  2  3  2  0
  3  4  1  0
  4  5  2  0
  5  6  1  0
  6  7  1  0
  7  8  1  0
  8  9  2  0
  9 10  1  0
 10 11  1  0
 10 12  2  0
 12 13  1  0
 13 14  2  0
 14 15  1  0
 15 16  1  0
 16 17  1  0
 17 18  2  0
 18 19  1  0
 19 20  2  0
 20 21  1  0
 21 22  1  0
 22 23  1  0
 23 24  1  0
 24 25  1  0
 25 26  1  0
 26 27  1  0
 27 28  1  0
 27 29  1  0
 20 30  1  0
 30 31  2  0
  5 32  1  0
 32 33  2  0
 33  2  1  0
 16  6  1  0
 31 17  1  0
 14  8  1  0
 29 24  1  0
  1 34  1  0
  3 35  1  0
  4 36  1  0
  6 37  1  1
  9 38  1  0
 11 39  1  0
 12 40  1  0
 13 41  1  0
 16 42  1  1
 18 43  1  0
 19 44  1  0
 22 45  1  0
 22 46  1  0
 23 47  1  0
 23 48  1  0
 25 49  1  0
 25 50  1  0
 26 51  1  0
 26 52  1  0
 27 53  1  6
 28 54  1  0
 29 55  1  0
 29 56  1  0
 30 57  1  0
 31 58  1  0
 32 59  1  0
 33 60  1  0
M  END
$$$$
CHEMBL185114
     RDKit          3D

 60 64  0  0  0  0  0  0  0  0999 V2000
   -2.3997    2.6871   -3.6049 O   0  0  0  0  0  0  0  0  0  0  0  0
   -2.6953    2.0502   -2.4017 C   0  0  0  0  0  0  0  0  0  0  0  0
   -2.7227    2.7685   -1.2018 C   0  0  0  0  0  0  0  0  0  0  0  0
   -3.0281    2.1232   -0.0024 C   0  0  0  0  0  0  0  0  0  0  0  0
   -3.3155    0.7443    0.0195 C   0  0  0  0  0  0  0  0  0  0  0  0
   -3.5949    0.0708    1.3579 C   0  0  1  0  0  0  0  0  0  0  0  0
   -5.2143   -0.7734    1.4280 S   0  0  0  0  0  0  0  0  0  0  0  0
   -4.7505   -2.3325    0.6623 C   0  0  0  0  0  0  0  0  0  0  0  0
   -5.7581   -3.0840    0.0427 C   0  0  0  0  0  0  0  0  0  0  0  0
   -5.4680   -4.3297   -0.5300 C   0  0  0  0  0  0  0  0  0  0  0  0
   -6.4670   -5.0795   -1.1506 O   0  0  0  0  0  0  0  0  0  0  0  0
   -4.1650   -4.8286   -0.4774 C   0  0  0  0  0  0  0  0  0  0  0  0
   -3.1457   -4.0692    0.1055 C   0  0  0  0  0  0  0  0  0  0  0  0
   -3.4270   -2.8186    0.6692 C   0  0  0  0  0  0  0  0  0  0  0  0
   -2.3567   -2.0587    1.1453 O   0  0  0  0  0  0  0  0  0  0  0  0
   -2.4675   -0.8443    1.8811 C   0  0  1  0  0  0  0  0  0  0  0  0
   -1.1342   -0.1242    1.8861 C   0  0  0  0  0  0  0  0  0  0  0  0
   -0.2507   -0.2423    0.7974 C   0  0  0  0  0  0  0  0  0  0  0  0
    0.9736    0.4262    0.8048 C   0  0  0  0  0  0  0  0  0  0  0  0
    1.3279    1.2521    1.8879 C   0  0  0  0  0  0  0  0  0  0  0  0
    2.5573    1.9306    1.9522 O   0  0  0  0  0  0  0  0  0  0  0  0
    3.6247    1.8041    1.0110 C   0  0  0  0  0  0  0  0  0  0  0  0
    4.3924    0.4834    1.2540 C   0  0  0  0  0  0  0  0  0  0  0  0
    5.3785    0.1312    0.2044 N   0  0  0  0  0  0  0  0  0  0  0  0
    4.7759   -0.2670   -1.0790 C   0  0  0  0  0  0  0  0  0  0  0  0
    5.5518    0.4270   -2.1900 C   0  0  0  0  0  0  0  0  0  0  0  0
    6.2315    1.6021   -1.5175 C   0  0  1  0  0  0  0  0  0  0  0  0
    5.3977    2.7305   -1.5868 O   0  0  0  0  0  0  0  0  0  0  0  0
    6.3985    1.1570   -0.0684 C   0  0  0  0  0  0  0  0  0  0  0  0
    0.4215    1.4144    2.9450 C   0  0  0  0  0  0  0  0  0  0  0  0
   -0.7982    0.7331    2.9486 C   0  0  0  0  0  0  0  0  0  0  0  0
   -3.2741    0.0292   -1.1932 C   0  0  0  0  0  0  0  0  0  0  0  0
   -2.9700    0.6811   -2.3941 C   0  0  0  0  0  0  0  0  0  0  0  0
   -2.1849    3.6784   -3.6354 H   0  0  0  0  0  0  0  0  0  0  0  0
   -2.5114    3.8308   -1.1989 H   0  0  0  0  0  0  0  0  0  0  0  0
   -3.0302    2.7019    0.9141 H   0  0  0  0  0  0  0  0  0  0  0  0
   -3.7026    0.8745    2.1196 H   0  0  0  0  0  0  0  0  0  0  0  0
   -6.7698   -2.7066    0.0124 H   0  0  0  0  0  0  0  0  0  0  0  0
   -7.4308   -4.7573   -1.1800 H   0  0  0  0  0  0  0  0  0  0  0  0
   -3.9323   -5.7903   -0.9181 H   0  0  0  0  0  0  0  0  0  0  0  0
   -2.1277   -4.4438    0.0992 H   0  0  0  0  0  0  0  0  0  0  0  0
   -2.7136   -1.1228    2.9304 H   0  0  0  0  0  0  0  0  0  0  0  0
   -0.5032   -0.8627   -0.0560 H   0  0  0  0  0  0  0  0  0  0  0  0
    1.6389    0.2783   -0.0331 H   0  0  0  0  0  0  0  0  0  0  0  0
    3.2381    1.8927   -0.0209 H   0  0  0  0  0  0  0  0  0  0  0  0
    4.3048    2.6642    1.1723 H   0  0  0  0  0  0  0  0  0  0  0  0
    3.6700   -0.3544    1.3597 H   0  0  0  0  0  0  0  0  0  0  0  0
    4.9224    0.5579    2.2286 H   0  0  0  0  0  0  0  0  0  0  0  0
    3.7031    0.0067   -1.1526 H   0  0  0  0  0  0  0  0  0  0  0  0
    4.8523   -1.3705   -1.1904 H   0  0  0  0  0  0  0  0  0  0  0  0
    6.3217   -0.2690   -2.5947 H   0  0  0  0  0  0  0  0  0  0  0  0
    4.8823    0.7483   -3.0206 H   0  0  0  0  0  0  0  0  0  0  0  0
    7.2197    1.8069   -1.9972 H   0  0  0  0  0  0  0  0  0  0  0  0
    5.9880    3.5164   -1.4616 H   0  0  0  0  0  0  0  0  0  0  0  0
    6.3672    2.0137    0.6395 H   0  0  0  0  0  0  0  0  0  0  0  0
    7.4003    0.6860    0.0503 H   0  0  0  0  0  0  0  0  0  0  0  0
    0.6695    2.0608    3.7747 H   0  0  0  0  0  0  0  0  0  0  0  0
   -1.4812    0.8735    3.7793 H   0  0  0  0  0  0  0  0  0  0  0  0
   -3.4750   -1.0257   -1.2355 H   0  0  0  0  0  0  0  0  0  0  0  0
   -2.9435    0.1182   -3.3182 H   0  0  0  0  0  0  0  0  0  0  0  0
  1  2  1  0
  2  3  2  0
  3  4  1  0
  4  5  2  0
  5  6  1  0
  6  7  1  0
  7  8  1  0
  8  9  2  0
  9 10  1  0
 10 11  1  0
 10 12  2  0
 12 13  1  0
 13 14  2  0
 14 15  1  0
 15 16  1  0
 16 17  1  0
 17 18  2  0
 18 19  1  0
 19 20  2  0
 20 21  1  0
 21 22  1  0
 22 23  1  0
 23 24  1  0
 24 25  1  0
 25 26  1  0
 26 27  1  0
 27 28  1  0
 27 29  1  0
 20 30  1  0
 30 31  2  0
  5 32  1  0
 32 33  2  0
 33  2  1  0
 16  6  1  0
 31 17  1  0
 14  8  1  0
 29 24  1  0
  1 34  1  0
  3 35  1  0
  4 36  1  0
  6 37  1  1
  9 38  1  0
 11 39  1  0
 12 40  1  0
 13 41  1  0
 16 42  1  1
 18 43  1  0
 19 44  1  0
 22 45  1  0
 22 46  1  0
 23 47  1  0
 23 48  1  0
 25 49  1  0
 25 50  1  0
 26 51  1  0
 26 52  1  0
 27 53  1  6
 28 54  1  0
 29 55  1  0
 29 56  1  0
 30 57  1  0
 31 58  1  0
 32 59  1  0
 33 60  1  0
M  END
$$$$
CHEMBL304552
     RDKit          3D

 62 66  0  0  0  0  0  0  0  0999 V2000
    0.0597   -4.7896   -1.8412 O   0  0  0  0  0  0  0  0  0  0  0  0
   -0.7481   -3.7028   -1.5163 C   0  0  0  0  0  0  0  0  0  0  0  0
   -0.3875   -2.8720   -0.4513 C   0  0  0  0  0  0  0  0  0  0  0  0
   -1.1908   -1.7815   -0.1078 C   0  0  0  0  0  0  0  0  0  0  0  0
   -2.3870   -1.5192   -0.8147 C   0  0  0  0  0  0  0  0  0  0  0  0
   -3.2508   -0.3054   -0.5119 C   0  0  1  0  0  0  0  0  0  0  0  0
   -3.2442    0.1207    1.2662 S   0  0  0  0  0  0  0  0  0  0  0  0
   -4.5129    1.3707    1.0842 C   0  0  0  0  0  0  0  0  0  0  0  0
   -5.4907    1.5091    2.0793 C   0  0  0  0  0  0  0  0  0  0  0  0
   -6.4196    2.5578    2.0127 C   0  0  0  0  0  0  0  0  0  0  0  0
   -7.3755    2.7304    3.0118 O   0  0  0  0  0  0  0  0  0  0  0  0
   -6.3789    3.4538    0.9412 C   0  0  0  0  0  0  0  0  0  0  0  0
   -5.4129    3.3104   -0.0586 C   0  0  0  0  0  0  0  0  0  0  0  0
   -4.4887    2.2594   -0.0057 C   0  0  0  0  0  0  0  0  0  0  0  0
   -3.5789    2.1091   -1.0634 O   0  0  0  0  0  0  0  0  0  0  0  0
   -2.8409    0.9179   -1.3774 C   0  0  1  0  0  0  0  0  0  0  0  0
   -1.3544    1.2129   -1.3382 C   0  0  0  0  0  0  0  0  0  0  0  0
   -0.5203    0.7377   -2.3639 C   0  0  0  0  0  0  0  0  0  0  0  0
    0.8530    0.9827   -2.3305 C   0  0  0  0  0  0  0  0  0  0  0  0
    1.4245    1.6824   -1.2650 C   0  0  0  0  0  0  0  0  0  0  0  0
    2.8138    1.8776   -1.2710 O   0  0  0  0  0  0  0  0  0  0  0  0
    3.6062    2.1845   -0.1223 C   0  0  0  0  0  0  0  0  0  0  0  0
    3.6252    1.0077    0.8613 C   0  0  0  0  0  0  0  0  0  0  0  0
    3.8884   -0.2638    0.1487 N   0  0  0  0  0  0  0  0  0  0  0  0
    3.2150   -1.4266    0.7663 C   0  0  0  0  0  0  0  0  0  0  0  0
    3.8915   -1.8560    2.0748 C   0  0  0  0  0  0  0  0  0  0  0  0
    5.3687   -2.1688    1.8305 C   0  0  0  0  0  0  0  0  0  0  0  0
    6.0745   -0.9791    1.1770 C   0  0  0  0  0  0  0  0  0  0  0  0
    5.3283   -0.5197   -0.0889 C   0  0  0  0  0  0  0  0  0  0  0  0
    0.5951    2.1577   -0.2314 C   0  0  0  0  0  0  0  0  0  0  0  0
   -0.7828    1.9250   -0.2698 C   0  0  0  0  0  0  0  0  0  0  0  0
   -2.7286   -2.3518   -1.8943 C   0  0  0  0  0  0  0  0  0  0  0  0
   -1.9137   -3.4304   -2.2466 C   0  0  0  0  0  0  0  0  0  0  0  0
   -0.1683   -5.4024   -2.6174 H   0  0  0  0  0  0  0  0  0  0  0  0
    0.5200   -3.0706    0.1067 H   0  0  0  0  0  0  0  0  0  0  0  0
   -0.8644   -1.1340    0.6957 H   0  0  0  0  0  0  0  0  0  0  0  0
   -4.3039   -0.5643   -0.7696 H   0  0  0  0  0  0  0  0  0  0  0  0
   -5.5083    0.8269    2.9192 H   0  0  0  0  0  0  0  0  0  0  0  0
   -7.4240    2.1156    3.8180 H   0  0  0  0  0  0  0  0  0  0  0  0
   -7.0939    4.2652    0.8870 H   0  0  0  0  0  0  0  0  0  0  0  0
   -5.3966    4.0049   -0.8898 H   0  0  0  0  0  0  0  0  0  0  0  0
   -3.1117    0.6591   -2.4241 H   0  0  0  0  0  0  0  0  0  0  0  0
   -0.9308    0.1774   -3.1953 H   0  0  0  0  0  0  0  0  0  0  0  0
    1.4800    0.6086   -3.1297 H   0  0  0  0  0  0  0  0  0  0  0  0
    4.6405    2.3953   -0.4633 H   0  0  0  0  0  0  0  0  0  0  0  0
    3.2381    3.1061    0.3758 H   0  0  0  0  0  0  0  0  0  0  0  0
    4.3750    1.2016    1.6569 H   0  0  0  0  0  0  0  0  0  0  0  0
    2.6345    0.9783    1.3640 H   0  0  0  0  0  0  0  0  0  0  0  0
    3.2299   -2.2797    0.0519 H   0  0  0  0  0  0  0  0  0  0  0  0
    2.1421   -1.2005    0.9565 H   0  0  0  0  0  0  0  0  0  0  0  0
    3.7934   -1.0488    2.8321 H   0  0  0  0  0  0  0  0  0  0  0  0
    3.3885   -2.7633    2.4705 H   0  0  0  0  0  0  0  0  0  0  0  0
    5.8630   -2.4046    2.7991 H   0  0  0  0  0  0  0  0  0  0  0  0
    5.4573   -3.0596    1.1698 H   0  0  0  0  0  0  0  0  0  0  0  0
    6.1593   -0.1478    1.9093 H   0  0  0  0  0  0  0  0  0  0  0  0
    7.1099   -1.2775    0.9008 H   0  0  0  0  0  0  0  0  0  0  0  0
    5.4235   -1.3060   -0.8708 H   0  0  0  0  0  0  0  0  0  0  0  0
    5.8254    0.3865   -0.4953 H   0  0  0  0  0  0  0  0  0  0  0  0
    1.0015    2.7108    0.6038 H   0  0  0  0  0  0  0  0  0  0  0  0
   -1.4023    2.2950    0.5398 H   0  0  0  0  0  0  0  0  0  0  0  0
   -3.6215   -2.1549   -2.4779 H   0  0  0  0  0  0  0  0  0  0  0  0
   -2.1928   -4.0581   -3.0809 H   0  0  0  0  0  0  0  0  0  0  0  0
  1  2  1  0
  2  3  2  0
  3  4  1  0
  4  5  2  0
  5  6  1  0
  6  7  1  0
  7  8  1  0
  8  9  2  0
  9 10  1  0
 10 11  1  0
 10 12  2  0
 12 13  1  0
 13 14  2  0
 14 15  1  0
 15 16  1  0
 16 17  1  0
 17 18  2  0
 18 19  1  0
 19 20  2  0
 20 21  1  0
 21 22  1  0
 22 23  1  0
 23 24  1  0
 24 25  1  0
 25 26  1  0
 26 27  1  0
 27 28  1  0
 28 29  1  0
 20 30  1  0
 30 31  2  0
  5 32  1  0
 32 33  2  0
 33  2  1  0
 16  6  1  0
 31 17  1  0
 14  8  1  0
 29 24  1  0
  1 34  1  0
  3 35  1  0
  4 36  1  0
  6 37  1  6
  9 38  1  0
 11 39  1  0
 12 40  1  0
 13 41  1  0
 16 42  1  6
 18 43  1  0
 19 44  1  0
 22 45  1  0
 22 46  1  0
 23 47  1  0
 23 48  1  0
 25 49  1  0
 25 50  1  0
 26 51  1  0
 26 52  1  0
 27 53  1  0
 27 54  1  0
 28 55  1  0
 28 56  1  0
 29 57  1  0
 29 58  1  0
 30 59  1  0
 31 60  1  0
 32 61  1  0
 33 62  1  0
M  END
$$$$
CHEMBL304552
     RDKit          3D

 62 66  0  0  0  0  0  0  0  0999 V2000
   -3.6351   -5.4916   -2.0877 O   0  0  0  0  0  0  0  0  0  0  0  0
   -3.6466   -4.1189   -1.8564 C   0  0  0  0  0  0  0  0  0  0  0  0
   -4.0580   -3.2284   -2.8583 C   0  0  0  0  0  0  0  0  0  0  0  0
   -4.0670   -1.8517   -2.6133 C   0  0  0  0  0  0  0  0  0  0  0  0
   -3.6788   -1.3454   -1.3582 C   0  0  0  0  0  0  0  0  0  0  0  0
   -3.6688    0.1564   -1.1281 C   0  0  1  0  0  0  0  0  0  0  0  0
   -4.1849    0.5863    0.5692 S   0  0  0  0  0  0  0  0  0  0  0  0
   -4.2252    2.3471    0.2354 C   0  0  0  0  0  0  0  0  0  0  0  0
   -5.2269    3.1266    0.8240 C   0  0  0  0  0  0  0  0  0  0  0  0
   -5.2181    4.5201    0.6733 C   0  0  0  0  0  0  0  0  0  0  0  0
   -6.1979    5.3058    1.2792 O   0  0  0  0  0  0  0  0  0  0  0  0
   -4.2083    5.1300   -0.0787 C   0  0  0  0  0  0  0  0  0  0  0  0
   -3.2224    4.3521   -0.6937 C   0  0  0  0  0  0  0  0  0  0  0  0
   -3.2378    2.9580   -0.5637 C   0  0  0  0  0  0  0  0  0  0  0  0
   -2.2893    2.2117   -1.2802 O   0  0  0  0  0  0  0  0  0  0  0  0
   -2.2903    0.7879   -1.4497 C   0  0  1  0  0  0  0  0  0  0  0  0
   -1.1401    0.1737   -0.6729 C   0  0  0  0  0  0  0  0  0  0  0  0
   -0.3786   -0.8583   -1.2503 C   0  0  0  0  0  0  0  0  0  0  0  0
    0.6660   -1.4536   -0.5391 C   0  0  0  0  0  0  0  0  0  0  0  0
    0.9742   -1.0211    0.7673 C   0  0  0  0  0  0  0  0  0  0  0  0
    2.0136   -1.5807    1.5301 O   0  0  0  0  0  0  0  0  0  0  0  0
    3.0039   -2.4883    1.0449 C   0  0  0  0  0  0  0  0  0  0  0  0
    4.0132   -1.7633    0.1495 C   0  0  0  0  0  0  0  0  0  0  0  0
    4.6330   -0.6377    0.8856 N   0  0  0  0  0  0  0  0  0  0  0  0
    5.8788   -1.0631    1.5575 C   0  0  0  0  0  0  0  0  0  0  0  0
    6.4695    0.0653    2.4273 C   0  0  0  0  0  0  0  0  0  0  0  0
    5.7610    1.4066    2.2120 C   0  0  0  0  0  0  0  0  0  0  0  0
    5.5631    1.6846    0.7187 C   0  0  0  0  0  0  0  0  0  0  0  0
    4.9039    0.4988   -0.0202 C   0  0  0  0  0  0  0  0  0  0  0  0
    0.2143    0.0046    1.3430 C   0  0  0  0  0  0  0  0  0  0  0  0
   -0.8300    0.6013    0.6317 C   0  0  0  0  0  0  0  0  0  0  0  0
   -3.2454   -2.2497   -0.3662 C   0  0  0  0  0  0  0  0  0  0  0  0
   -3.2388   -3.6259   -0.6137 C   0  0  0  0  0  0  0  0  0  0  0  0
   -3.9169   -5.8766   -2.9782 H   0  0  0  0  0  0  0  0  0  0  0  0
   -4.3696   -3.6020   -3.8280 H   0  0  0  0  0  0  0  0  0  0  0  0
   -4.3756   -1.1805   -3.4058 H   0  0  0  0  0  0  0  0  0  0  0  0
   -4.4204    0.6143   -1.8100 H   0  0  0  0  0  0  0  0  0  0  0  0
   -5.9933    2.6531    1.4234 H   0  0  0  0  0  0  0  0  0  0  0  0
   -6.9122    4.8974    1.8715 H   0  0  0  0  0  0  0  0  0  0  0  0
   -4.1951    6.2046   -0.1998 H   0  0  0  0  0  0  0  0  0  0  0  0
   -2.4597    4.8301   -1.2949 H   0  0  0  0  0  0  0  0  0  0  0  0
   -2.1054    0.6088   -2.5331 H   0  0  0  0  0  0  0  0  0  0  0  0
   -0.6023   -1.2132   -2.2501 H   0  0  0  0  0  0  0  0  0  0  0  0
    1.2175   -2.2538   -1.0142 H   0  0  0  0  0  0  0  0  0  0  0  0
    2.5298   -3.3327    0.5009 H   0  0  0  0  0  0  0  0  0  0  0  0
    3.5358   -2.9262    1.9162 H   0  0  0  0  0  0  0  0  0  0  0  0
    4.7765   -2.4891   -0.2097 H   0  0  0  0  0  0  0  0  0  0  0  0
    3.4751   -1.4088   -0.7578 H   0  0  0  0  0  0  0  0  0  0  0  0
    6.6356   -1.3781    0.8041 H   0  0  0  0  0  0  0  0  0  0  0  0
    5.6786   -1.9397    2.2091 H   0  0  0  0  0  0  0  0  0  0  0  0
    6.4015   -0.2091    3.5021 H   0  0  0  0  0  0  0  0  0  0  0  0
    7.5467    0.1859    2.1841 H   0  0  0  0  0  0  0  0  0  0  0  0
    6.3537    2.2260    2.6726 H   0  0  0  0  0  0  0  0  0  0  0  0
    4.7686    1.3881    2.7175 H   0  0  0  0  0  0  0  0  0  0  0  0
    6.5492    1.9040    0.2555 H   0  0  0  0  0  0  0  0  0  0  0  0
    4.9355    2.5939    0.6061 H   0  0  0  0  0  0  0  0  0  0  0  0
    3.9452    0.8508   -0.4615 H   0  0  0  0  0  0  0  0  0  0  0  0
    5.5607    0.1745   -0.8606 H   0  0  0  0  0  0  0  0  0  0  0  0
    0.4385    0.3432    2.3478 H   0  0  0  0  0  0  0  0  0  0  0  0
   -1.3927    1.3985    1.1030 H   0  0  0  0  0  0  0  0  0  0  0  0
   -2.9022   -1.8942    0.5965 H   0  0  0  0  0  0  0  0  0  0  0  0
   -2.9093   -4.3084    0.1616 H   0  0  0  0  0  0  0  0  0  0  0  0
  1  2  1  0
  2  3  2  0
  3  4  1  0
  4  5  2  0
  5  6  1  0
  6  7  1  0
  7  8  1  0
  8  9  2  0
  9 10  1  0
 10 11  1  0
 10 12  2  0
 12 13  1  0
 13 14  2  0
 14 15  1  0
 15 16  1  0
 16 17  1  0
 17 18  2  0
 18 19  1  0
 19 20  2  0
 20 21  1  0
 21 22  1  0
 22 23  1  0
 23 24  1  0
 24 25  1  0
 25 26  1  0
 26 27  1  0
 27 28  1  0
 28 29  1  0
 20 30  1  0
 30 31  2  0
  5 32  1  0
 32 33  2  0
 33  2  1  0
 16  6  1  0
 31 17  1  0
 14  8  1  0
 29 24  1  0
  1 34  1  0
  3 35  1  0
  4 36  1  0
  6 37  1  6
  9 38  1  0
 11 39  1  0
 12 40  1  0
 13 41  1  0
 16 42  1  6
 18 43  1  0
 19 44  1  0
 22 45  1  0
 22 46  1  0
 23 47  1  0
 23 48  1  0
 25 49  1  0
 25 50  1  0
 26 51  1  0
 26 52  1  0
 27 53  1  0
 27 54  1  0
 28 55  1  0
 28 56  1  0
 29 57  1  0
 29 58  1  0
 30 59  1  0
 31 60  1  0
 32 61  1  0
 33 62  1  0
M  END
$$$$
