CMP_0
     RDKit          3D

 59 63  0  0  0  0  0  0  0  0999 V2000
   -4.1208    3.3335   -3.4292 O   0  0  0  0  0  0  0  0  0  0  0  0
   -3.8402    2.6934   -2.2243 C   0  0  0  0  0  0  0  0  0  0  0  0
   -3.3260    1.3953   -2.2358 C   0  0  0  0  0  0  0  0  0  0  0  0
   -3.0392    0.7381   -1.0359 C   0  0  0  0  0  0  0  0  0  0  0  0
   -3.2666    1.3749    0.2031 C   0  0  0  0  0  0  0  0  0  0  0  0
   -2.9885    0.7167    1.5514 C   0  0  1  0  0  0  0  0  0  0  0  0
   -4.5431    0.4304    2.4626 S   0  0  0  0  0  0  0  0  0  0  0  0
   -5.1468   -0.8500    1.3625 C   0  0  0  0  0  0  0  0  0  0  0  0
   -6.5204   -0.9252    1.1013 C   0  0  0  0  0  0  0  0  0  0  0  0
   -7.0327   -1.9598    0.3071 C   0  0  0  0  0  0  0  0  0  0  0  0
   -8.3992   -2.0498    0.0518 O   0  0  0  0  0  0  0  0  0  0  0  0
   -6.1655   -2.9151   -0.2307 C   0  0  0  0  0  0  0  0  0  0  0  0
   -4.7913   -2.8272    0.0059 C   0  0  0  0  0  0  0  0  0  0  0  0
   -4.2708   -1.7860    0.7830 C   0  0  0  0  0  0  0  0  0  0  0  0
   -2.8786   -1.6674    0.8914 O   0  0  0  0  0  0  0  0  0  0  0  0
   -2.1752   -0.6080    1.5544 C   0  0  1  0  0  0  0  0  0  0  0  0
   -0.7596   -0.5160    0.9937 C   0  0  0  0  0  0  0  0  0  0  0  0
   -0.0453   -1.7093    0.7770 C   0  0  0  0  0  0  0  0  0  0  0  0
    1.2633   -1.6852    0.2879 C   0  0  0  0  0  0  0  0  0  0  0  0
    1.8968   -0.4601    0.0196 C   0  0  0  0  0  0  0  0  0  0  0  0
    3.2063   -0.3812   -0.4746 O   0  0  0  0  0  0  0  0  0  0  0  0
    4.0385   -1.5069   -0.7429 C   0  0  0  0  0  0  0  0  0  0  0  0
    5.4052   -1.0427   -1.2503 C   0  0  0  0  0  0  0  0  0  0  0  0
    6.2229   -0.4886   -0.1514 N   0  0  0  0  0  0  0  0  0  0  0  0
    5.7973    0.8553    0.2663 C   0  0  0  0  0  0  0  0  0  0  0  0
    7.0426    1.6073    0.7260 C   0  0  0  0  0  0  0  0  0  0  0  0
    8.2184    0.7222    0.3471 C   0  0  1  0  0  0  0  0  0  0  0  0
    8.7557    0.1343    1.4811 F   0  0  0  0  0  0  0  0  0  0  0  0
    7.6237   -0.3436   -0.5532 C   0  0  0  0  0  0  0  0  0  0  0  0
    1.2045    0.7299    0.2561 C   0  0  0  0  0  0  0  0  0  0  0  0
   -0.1037    0.7093    0.7470 C   0  0  0  0  0  0  0  0  0  0  0  0
   -3.7812    2.6846    0.1985 C   0  0  0  0  0  0  0  0  0  0  0  0
   -4.0661    3.3380   -1.0032 C   0  0  0  0  0  0  0  0  0  0  0  0
   -4.4868    4.2784   -3.4540 H   0  0  0  0  0  0  0  0  0  0  0  0
   -3.1456    0.8940   -3.1783 H   0  0  0  0  0  0  0  0  0  0  0  0
   -2.6316   -0.2586   -1.0964 H   0  0  0  0  0  0  0  0  0  0  0  0
   -2.4309    1.4474    2.1761 H   0  0  0  0  0  0  0  0  0  0  0  0
   -7.1927   -0.1951    1.5343 H   0  0  0  0  0  0  0  0  0  0  0  0
   -9.0534   -1.3730    0.4271 H   0  0  0  0  0  0  0  0  0  0  0  0
   -6.5552   -3.7177   -0.8438 H   0  0  0  0  0  0  0  0  0  0  0  0
   -4.1239   -3.5526   -0.4419 H   0  0  0  0  0  0  0  0  0  0  0  0
   -2.0615   -0.9085    2.6194 H   0  0  0  0  0  0  0  0  0  0  0  0
   -0.5033   -2.6679    0.9878 H   0  0  0  0  0  0  0  0  0  0  0  0
    1.7735   -2.6249    0.1254 H   0  0  0  0  0  0  0  0  0  0  0  0
    4.1710   -2.1126    0.1802 H   0  0  0  0  0  0  0  0  0  0  0  0
    3.5602   -2.1363   -1.5246 H   0  0  0  0  0  0  0  0  0  0  0  0
    5.2797   -0.3103   -2.0800 H   0  0  0  0  0  0  0  0  0  0  0  0
    5.9178   -1.9362   -1.6733 H   0  0  0  0  0  0  0  0  0  0  0  0
    5.3201    1.4190   -0.5683 H   0  0  0  0  0  0  0  0  0  0  0  0
    5.0708    0.7722    1.1034 H   0  0  0  0  0  0  0  0  0  0  0  0
    7.0149    1.7845    1.8241 H   0  0  0  0  0  0  0  0  0  0  0  0
    7.1139    2.5887    0.2064 H   0  0  0  0  0  0  0  0  0  0  0  0
    9.0100    1.2986   -0.1798 H   0  0  0  0  0  0  0  0  0  0  0  0
    7.7063   -0.0060   -1.6129 H   0  0  0  0  0  0  0  0  0  0  0  0
    8.1600   -1.3098   -0.4367 H   0  0  0  0  0  0  0  0  0  0  0  0
    1.6865    1.6800    0.0620 H   0  0  0  0  0  0  0  0  0  0  0  0
   -0.5862    1.6591    0.9209 H   0  0  0  0  0  0  0  0  0  0  0  0
   -3.9644    3.2020    1.1325 H   0  0  0  0  0  0  0  0  0  0  0  0
   -4.4635    4.3447   -0.9834 H   0  0  0  0  0  0  0  0  0  0  0  0
  1  2  1  0
  2  3  2  0
  3  4  1  0
  4  5  2  0
  5  6  1  0
  6  7  1  0
  7  8  1  0
  8  9  2  0
  9 10  1  0
 10 11  1  0
 10 12  2  0
 12 13  1  0
 13 14  2  0
 14 15  1  0
 15 16  1  0
 16 17  1  0
 17 18  2  0
 18 19  1  0
 19 20  2  0
 20 21  1  0
 21 22  1  0
 22 23  1  0
 23 24  1  0
 24 25  1  0
 25 26  1  0
 26 27  1  0
 27 28  1  0
 27 29  1  0
 20 30  1  0
 30 31  2  0
  5 32  1  0
 32 33  2  0
 33  2  1  0
 16  6  1  0
 31 17  1  0
 14  8  1  0
 29 24  1  0
  1 34  1  0
  3 35  1  0
  4 36  1  0
  6 37  1  1
  9 38  1  0
 11 39  1  0
 12 40  1  0
 13 41  1  0
 16 42  1  1
 18 43  1  0
 19 44  1  0
 22 45  1  0
 22 46  1  0
 23 47  1  0
 23 48  1  0
 25 49  1  0
 25 50  1  0
 26 51  1  0
 26 52  1  0
 27 53  1  6
 29 54  1  0
 29 55  1  0
 30 56  1  0
 31 57  1  0
 32 58  1  0
 33 59  1  0
M  END
$$$$
CMP_0
     RDKit          3D

 59 63  0  0  0  0  0  0  0  0999 V2000
   -2.9082   -4.6631   -1.8979 O   0  0  0  0  0  0  0  0  0  0  0  0
   -3.0198   -3.2798   -1.7778 C   0  0  0  0  0  0  0  0  0  0  0  0
   -3.9359   -2.7117   -0.8853 C   0  0  0  0  0  0  0  0  0  0  0  0
   -4.0385   -1.3223   -0.7695 C   0  0  0  0  0  0  0  0  0  0  0  0
   -3.2293   -0.4760   -1.5534 C   0  0  0  0  0  0  0  0  0  0  0  0
   -3.2621    1.0417   -1.4238 C   0  0  1  0  0  0  0  0  0  0  0  0
   -4.9541    1.7420   -1.3990 S   0  0  0  0  0  0  0  0  0  0  0  0
   -5.3233    1.5742    0.3608 C   0  0  0  0  0  0  0  0  0  0  0  0
   -6.6690    1.6228    0.7496 C   0  0  0  0  0  0  0  0  0  0  0  0
   -7.0284    1.4798    2.0930 C   0  0  0  0  0  0  0  0  0  0  0  0
   -8.3720    1.5403    2.4560 O   0  0  0  0  0  0  0  0  0  0  0  0
   -6.0368    1.2755    3.0590 C   0  0  0  0  0  0  0  0  0  0  0  0
   -4.6947    1.2086    2.6798 C   0  0  0  0  0  0  0  0  0  0  0  0
   -4.3274    1.3552    1.3372 C   0  0  0  0  0  0  0  0  0  0  0  0
   -2.9773    1.2211    1.0047 O   0  0  0  0  0  0  0  0  0  0  0  0
   -2.4285    1.5964   -0.2538 C   0  0  1  0  0  0  0  0  0  0  0  0
   -0.9816    1.1619   -0.3453 C   0  0  0  0  0  0  0  0  0  0  0  0
   -0.5424   -0.0289    0.2605 C   0  0  0  0  0  0  0  0  0  0  0  0
    0.7827   -0.4478    0.1177 C   0  0  0  0  0  0  0  0  0  0  0  0
    1.6898    0.3048   -0.6357 C   0  0  0  0  0  0  0  0  0  0  0  0
    3.0082   -0.1595   -0.7479 O   0  0  0  0  0  0  0  0  0  0  0  0
    4.0386    0.5065   -1.4743 C   0  0  0  0  0  0  0  0  0  0  0  0
    5.3431   -0.2820   -1.3614 C   0  0  0  0  0  0  0  0  0  0  0  0
    5.7163   -0.4921    0.0518 N   0  0  0  0  0  0  0  0  0  0  0  0
    6.8178   -1.4497    0.1761 C   0  0  0  0  0  0  0  0  0  0  0  0
    7.5178   -1.1412    1.4890 C   0  0  0  0  0  0  0  0  0  0  0  0
    7.1466    0.2982    1.8120 C   0  0  1  0  0  0  0  0  0  0  0  0
    8.2732    1.1044    1.8344 F   0  0  0  0  0  0  0  0  0  0  0  0
    6.1961    0.7324    0.7036 C   0  0  0  0  0  0  0  0  0  0  0  0
    1.2512    1.4909   -1.2534 C   0  0  0  0  0  0  0  0  0  0  0  0
   -0.0747    1.9104   -1.1125 C   0  0  0  0  0  0  0  0  0  0  0  0
   -2.3086   -1.0626   -2.4437 C   0  0  0  0  0  0  0  0  0  0  0  0
   -2.2075   -2.4517   -2.5548 C   0  0  0  0  0  0  0  0  0  0  0  0
   -3.4829   -5.2904   -1.3473 H   0  0  0  0  0  0  0  0  0  0  0  0
   -4.5679   -3.3463   -0.2770 H   0  0  0  0  0  0  0  0  0  0  0  0
   -4.7536   -0.9274   -0.0681 H   0  0  0  0  0  0  0  0  0  0  0  0
   -2.8197    1.4673   -2.3519 H   0  0  0  0  0  0  0  0  0  0  0  0
   -7.4413    1.7761    0.0059 H   0  0  0  0  0  0  0  0  0  0  0  0
   -8.6649    1.4395    3.4209 H   0  0  0  0  0  0  0  0  0  0  0  0
   -6.3052    1.1602    4.1014 H   0  0  0  0  0  0  0  0  0  0  0  0
   -3.9353    1.0332    3.4313 H   0  0  0  0  0  0  0  0  0  0  0  0
   -2.4610    2.7081   -0.3083 H   0  0  0  0  0  0  0  0  0  0  0  0
   -1.2276   -0.6424    0.8320 H   0  0  0  0  0  0  0  0  0  0  0  0
    1.1057   -1.3668    0.5902 H   0  0  0  0  0  0  0  0  0  0  0  0
    4.1826    1.5329   -1.0739 H   0  0  0  0  0  0  0  0  0  0  0  0
    3.7529    0.5774   -2.5462 H   0  0  0  0  0  0  0  0  0  0  0  0
    5.1849   -1.2677   -1.8540 H   0  0  0  0  0  0  0  0  0  0  0  0
    6.1488    0.2456   -1.9205 H   0  0  0  0  0  0  0  0  0  0  0  0
    7.5490   -1.3376   -0.6586 H   0  0  0  0  0  0  0  0  0  0  0  0
    6.4223   -2.4883    0.1766 H   0  0  0  0  0  0  0  0  0  0  0  0
    8.6179   -1.2730    1.3927 H   0  0  0  0  0  0  0  0  0  0  0  0
    7.1402   -1.8179    2.2871 H   0  0  0  0  0  0  0  0  0  0  0  0
    6.6379    0.3507    2.7999 H   0  0  0  0  0  0  0  0  0  0  0  0
    6.7380    1.3919   -0.0130 H   0  0  0  0  0  0  0  0  0  0  0  0
    5.3381    1.2945    1.1312 H   0  0  0  0  0  0  0  0  0  0  0  0
    1.9240    2.0920   -1.8494 H   0  0  0  0  0  0  0  0  0  0  0  0
   -0.3968    2.8177   -1.6086 H   0  0  0  0  0  0  0  0  0  0  0  0
   -1.6553   -0.4430   -3.0457 H   0  0  0  0  0  0  0  0  0  0  0  0
   -1.4924   -2.8848   -3.2426 H   0  0  0  0  0  0  0  0  0  0  0  0
  1  2  1  0
  2  3  2  0
  3  4  1  0
  4  5  2  0
  5  6  1  0
  6  7  1  0
  7  8  1  0
  8  9  2  0
  9 10  1  0
 10 11  1  0
 10 12  2  0
 12 13  1  0
 13 14  2  0
 14 15  1  0
 15 16  1  0
 16 17  1  0
 17 18  2  0
 18 19  1  0
 19 20  2  0
 20 21  1  0
 21 22  1  0
 22 23  1  0
 23 24  1  0
 24 25  1  0
 25 26  1  0
 26 27  1  0
 27 28  1  0
 27 29  1  0
 20 30  1  0
 30 31  2  0
  5 32  1  0
 32 33  2  0
 33  2  1  0
 16  6  1  0
 31 17  1  0
 14  8  1  0
 29 24  1  0
  1 34  1  0
  3 35  1  0
  4 36  1  0
  6 37  1  6
  9 38  1  0
 11 39  1  0
 12 40  1  0
 13 41  1  0
 16 42  1  1
 18 43  1  0
 19 44  1  0
 22 45  1  0
 22 46  1  0
 23 47  1  0
 23 48  1  0
 25 49  1  0
 25 50  1  0
 26 51  1  0
 26 52  1  0
 27 53  1  1
 29 54  1  0
 29 55  1  0
 30 56  1  0
 31 57  1  0
 32 58  1  0
 33 59  1  0
M  END
$$$$
CMP_0
     RDKit          3D

 59 63  0  0  0  0  0  0  0  0999 V2000
   -2.0942   -4.4619    0.2540 O   0  0  0  0  0  0  0  0  0  0  0  0
   -2.3057   -3.1558   -0.1822 C   0  0  0  0  0  0  0  0  0  0  0  0
   -1.3944   -2.5338   -1.0427 C   0  0  0  0  0  0  0  0  0  0  0  0
   -1.6150   -1.2217   -1.4687 C   0  0  0  0  0  0  0  0  0  0  0  0
   -2.7525   -0.5071   -1.0439 C   0  0  0  0  0  0  0  0  0  0  0  0
   -2.9090    0.9465   -1.4739 C   0  0  1  0  0  0  0  0  0  0  0  0
   -4.6057    1.3848   -2.0050 S   0  0  0  0  0  0  0  0  0  0  0  0
   -5.3350    1.7543   -0.3960 C   0  0  0  0  0  0  0  0  0  0  0  0
   -6.7321    1.7272   -0.2957 C   0  0  0  0  0  0  0  0  0  0  0  0
   -7.3632    1.9777    0.9291 C   0  0  0  0  0  0  0  0  0  0  0  0
   -8.7522    1.9574    1.0296 O   0  0  0  0  0  0  0  0  0  0  0  0
   -6.5935    2.2477    2.0625 C   0  0  0  0  0  0  0  0  0  0  0  0
   -5.2000    2.2600    1.9765 C   0  0  0  0  0  0  0  0  0  0  0  0
   -4.5613    2.0125    0.7564 C   0  0  0  0  0  0  0  0  0  0  0  0
   -3.1650    1.9710    0.7401 O   0  0  0  0  0  0  0  0  0  0  0  0
   -2.3819    1.9689   -0.4492 C   0  0  1  0  0  0  0  0  0  0  0  0
   -0.9254    1.7207   -0.1193 C   0  0  0  0  0  0  0  0  0  0  0  0
    0.0770    2.2546   -0.9446 C   0  0  0  0  0  0  0  0  0  0  0  0
    1.4234    1.9683   -0.7022 C   0  0  0  0  0  0  0  0  0  0  0  0
    1.7896    1.1306    0.3677 C   0  0  0  0  0  0  0  0  0  0  0  0
    3.1248    0.8019    0.6435 O   0  0  0  0  0  0  0  0  0  0  0  0
    4.2397    1.2511   -0.1244 C   0  0  0  0  0  0  0  0  0  0  0  0
    5.5328    0.6702    0.4484 C   0  0  0  0  0  0  0  0  0  0  0  0
    5.4665   -0.8031    0.5330 N   0  0  0  0  0  0  0  0  0  0  0  0
    6.5936   -1.3507    1.3000 C   0  0  0  0  0  0  0  0  0  0  0  0
    6.9493   -2.7064    0.6953 C   0  0  0  0  0  0  0  0  0  0  0  0
    6.0808   -2.8431   -0.5434 C   0  0  1  0  0  0  0  0  0  0  0  0
    5.0382   -3.7231   -0.2972 F   0  0  0  0  0  0  0  0  0  0  0  0
    5.5327   -1.4501   -0.7816 C   0  0  0  0  0  0  0  0  0  0  0  0
    0.7908    0.5954    1.1876 C   0  0  0  0  0  0  0  0  0  0  0  0
   -0.5555    0.8811    0.9468 C   0  0  0  0  0  0  0  0  0  0  0  0
   -3.6602   -1.1450   -0.1751 C   0  0  0  0  0  0  0  0  0  0  0  0
   -3.4375   -2.4593    0.2465 C   0  0  0  0  0  0  0  0  0  0  0  0
   -1.2792   -4.9901   -0.0334 H   0  0  0  0  0  0  0  0  0  0  0  0
   -0.5109   -3.0629   -1.3766 H   0  0  0  0  0  0  0  0  0  0  0  0
   -0.8847   -0.7555   -2.1188 H   0  0  0  0  0  0  0  0  0  0  0  0
   -2.3053    1.0889   -2.3980 H   0  0  0  0  0  0  0  0  0  0  0  0
   -7.3310    1.5133   -1.1724 H   0  0  0  0  0  0  0  0  0  0  0  0
   -9.3384    1.7670    0.2254 H   0  0  0  0  0  0  0  0  0  0  0  0
   -7.0752    2.4397    3.0129 H   0  0  0  0  0  0  0  0  0  0  0  0
   -4.6121    2.4513    2.8651 H   0  0  0  0  0  0  0  0  0  0  0  0
   -2.4672    2.9827   -0.9019 H   0  0  0  0  0  0  0  0  0  0  0  0
   -0.1854    2.8842   -1.7858 H   0  0  0  0  0  0  0  0  0  0  0  0
    2.1693    2.3955   -1.3580 H   0  0  0  0  0  0  0  0  0  0  0  0
    4.1230    0.9366   -1.1842 H   0  0  0  0  0  0  0  0  0  0  0  0
    4.2959    2.3608   -0.0860 H   0  0  0  0  0  0  0  0  0  0  0  0
    5.6695    1.0938    1.4688 H   0  0  0  0  0  0  0  0  0  0  0  0
    6.3972    1.0014   -0.1709 H   0  0  0  0  0  0  0  0  0  0  0  0
    7.4891   -0.6866    1.2534 H   0  0  0  0  0  0  0  0  0  0  0  0
    6.2938   -1.4684    2.3639 H   0  0  0  0  0  0  0  0  0  0  0  0
    6.7532   -3.5308    1.4170 H   0  0  0  0  0  0  0  0  0  0  0  0
    8.0258   -2.7269    0.4115 H   0  0  0  0  0  0  0  0  0  0  0  0
    6.6679   -3.2017   -1.4176 H   0  0  0  0  0  0  0  0  0  0  0  0
    6.2191   -0.9058   -1.4708 H   0  0  0  0  0  0  0  0  0  0  0  0
    4.5208   -1.5000   -1.2388 H   0  0  0  0  0  0  0  0  0  0  0  0
    1.0593   -0.0569    2.0091 H   0  0  0  0  0  0  0  0  0  0  0  0
   -1.3083    0.4294    1.5805 H   0  0  0  0  0  0  0  0  0  0  0  0
   -4.5422   -0.6445    0.1857 H   0  0  0  0  0  0  0  0  0  0  0  0
   -4.1444   -2.9350    0.9142 H   0  0  0  0  0  0  0  0  0  0  0  0
  1  2  1  0
  2  3  2  0
  3  4  1  0
  4  5  2  0
  5  6  1  0
  6  7  1  0
  7  8  1  0
  8  9  2  0
  9 10  1  0
 10 11  1  0
 10 12  2  0
 12 13  1  0
 13 14  2  0
 14 15  1  0
 15 16  1  0
 16 17  1  0
 17 18  2  0
 18 19  1  0
 19 20  2  0
 20 21  1  0
 21 22  1  0
 22 23  1  0
 23 24  1  0
 24 25  1  0
 25 26  1  0
 26 27  1  0
 27 28  1  0
 27 29  1  0
 20 30  1  0
 30 31  2  0
  5 32  1  0
 32 33  2  0
 33  2  1  0
 16  6  1  0
 31 17  1  0
 14  8  1  0
 29 24  1  0
  1 34  1  0
  3 35  1  0
  4 36  1  0
  6 37  1  6
  9 38  1  0
 11 39  1  0
 12 40  1  0
 13 41  1  0
 16 42  1  6
 18 43  1  0
 19 44  1  0
 22 45  1  0
 22 46  1  0
 23 47  1  0
 23 48  1  0
 25 49  1  0
 25 50  1  0
 26 51  1  0
 26 52  1  0
 27 53  1  6
 29 54  1  0
 29 55  1  0
 30 56  1  0
 31 57  1  0
 32 58  1  0
 33 59  1  0
M  END
$$$$
CMP_0
     RDKit          3D

 59 63  0  0  0  0  0  0  0  0999 V2000
   -4.4429   -1.5280   -4.0501 O   0  0  0  0  0  0  0  0  0  0  0  0
   -4.0220   -0.7359   -2.9841 C   0  0  0  0  0  0  0  0  0  0  0  0
   -4.2298    0.6440   -3.0265 C   0  0  0  0  0  0  0  0  0  0  0  0
   -3.8087    1.4508   -1.9660 C   0  0  0  0  0  0  0  0  0  0  0  0
   -3.1617    0.8927   -0.8453 C   0  0  0  0  0  0  0  0  0  0  0  0
   -2.7543    1.8228    0.2922 C   0  0  1  0  0  0  0  0  0  0  0  0
   -4.1213    2.0886    1.4661 S   0  0  0  0  0  0  0  0  0  0  0  0
   -3.9906    0.5002    2.2926 C   0  0  0  0  0  0  0  0  0  0  0  0
   -5.1607   -0.0973    2.7782 C   0  0  0  0  0  0  0  0  0  0  0  0
   -5.0959   -1.2894    3.5127 C   0  0  0  0  0  0  0  0  0  0  0  0
   -6.2549   -1.8830    4.0085 O   0  0  0  0  0  0  0  0  0  0  0  0
   -3.8560   -1.8865    3.7569 C   0  0  0  0  0  0  0  0  0  0  0  0
   -2.6886   -1.3087    3.2518 C   0  0  0  0  0  0  0  0  0  0  0  0
   -2.7475   -0.1281    2.5005 C   0  0  0  0  0  0  0  0  0  0  0  0
   -1.5684    0.3338    1.9004 O   0  0  0  0  0  0  0  0  0  0  0  0
   -1.4546    1.4922    1.0676 C   0  0  1  0  0  0  0  0  0  0  0  0
   -0.2633    1.3760    0.1371 C   0  0  0  0  0  0  0  0  0  0  0  0
    0.2862    0.1271   -0.2045 C   0  0  0  0  0  0  0  0  0  0  0  0
    1.3688    0.0437   -1.0838 C   0  0  0  0  0  0  0  0  0  0  0  0
    1.9281    1.2104   -1.6372 C   0  0  0  0  0  0  0  0  0  0  0  0
    3.0249    1.1876   -2.5141 O   0  0  0  0  0  0  0  0  0  0  0  0
    3.9336    0.0987   -2.6918 C   0  0  0  0  0  0  0  0  0  0  0  0
    4.9829    0.0749   -1.5731 C   0  0  0  0  0  0  0  0  0  0  0  0
    4.3703   -0.2755   -0.2698 N   0  0  0  0  0  0  0  0  0  0  0  0
    5.2102    0.1637    0.8536 C   0  0  0  0  0  0  0  0  0  0  0  0
    6.1590   -0.9723    1.1858 C   0  0  0  0  0  0  0  0  0  0  0  0
    5.4445   -2.2258    0.7154 C   0  0  1  0  0  0  0  0  0  0  0  0
    5.0126   -2.9726    1.7993 F   0  0  0  0  0  0  0  0  0  0  0  0
    4.2507   -1.7363   -0.1022 C   0  0  0  0  0  0  0  0  0  0  0  0
    1.3631    2.4509   -1.3202 C   0  0  0  0  0  0  0  0  0  0  0  0
    0.2819    2.5364   -0.4388 C   0  0  0  0  0  0  0  0  0  0  0  0
   -2.9779   -0.5052   -0.8047 C   0  0  0  0  0  0  0  0  0  0  0  0
   -3.3967   -1.3086   -1.8697 C   0  0  0  0  0  0  0  0  0  0  0  0
   -4.3080   -2.5328   -4.0488 H   0  0  0  0  0  0  0  0  0  0  0  0
   -4.7212    1.0924   -3.8815 H   0  0  0  0  0  0  0  0  0  0  0  0
   -3.9905    2.5172   -2.0199 H   0  0  0  0  0  0  0  0  0  0  0  0
   -2.5797    2.8259   -0.1572 H   0  0  0  0  0  0  0  0  0  0  0  0
   -6.1192    0.3784    2.6089 H   0  0  0  0  0  0  0  0  0  0  0  0
   -7.1692   -1.4813    3.8396 H   0  0  0  0  0  0  0  0  0  0  0  0
   -3.7989   -2.8060    4.3264 H   0  0  0  0  0  0  0  0  0  0  0  0
   -1.7365   -1.7982    3.4146 H   0  0  0  0  0  0  0  0  0  0  0  0
   -1.2565    2.3495    1.7499 H   0  0  0  0  0  0  0  0  0  0  0  0
   -0.1169   -0.7897    0.2049 H   0  0  0  0  0  0  0  0  0  0  0  0
    1.7478   -0.9346   -1.3335 H   0  0  0  0  0  0  0  0  0  0  0  0
    3.4026   -0.8688   -2.7910 H   0  0  0  0  0  0  0  0  0  0  0  0
    4.4682    0.2595   -3.6520 H   0  0  0  0  0  0  0  0  0  0  0  0
    5.7983   -0.6357   -1.8385 H   0  0  0  0  0  0  0  0  0  0  0  0
    5.4347    1.0915   -1.5398 H   0  0  0  0  0  0  0  0  0  0  0  0
    4.5525    0.3565    1.7302 H   0  0  0  0  0  0  0  0  0  0  0  0
    5.7649    1.1061    0.6485 H   0  0  0  0  0  0  0  0  0  0  0  0
    6.3875   -1.0013    2.2738 H   0  0  0  0  0  0  0  0  0  0  0  0
    7.1065   -0.8461    0.6165 H   0  0  0  0  0  0  0  0  0  0  0  0
    6.1226   -2.8480    0.0897 H   0  0  0  0  0  0  0  0  0  0  0  0
    4.1912   -2.2810   -1.0719 H   0  0  0  0  0  0  0  0  0  0  0  0
    3.3066   -1.9482    0.4480 H   0  0  0  0  0  0  0  0  0  0  0  0
    1.7716    3.3558   -1.7541 H   0  0  0  0  0  0  0  0  0  0  0  0
   -0.1335    3.5096   -0.2073 H   0  0  0  0  0  0  0  0  0  0  0  0
   -2.5081   -0.9929    0.0332 H   0  0  0  0  0  0  0  0  0  0  0  0
   -3.2374   -2.3789   -1.8255 H   0  0  0  0  0  0  0  0  0  0  0  0
  1  2  1  0
  2  3  2  0
  3  4  1  0
  4  5  2  0
  5  6  1  0
  6  7  1  0
  7  8  1  0
  8  9  2  0
  9 10  1  0
 10 11  1  0
 10 12  2  0
 12 13  1  0
 13 14  2  0
 14 15  1  0
 15 16  1  0
 16 17  1  0
 17 18  2  0
 18 19  1  0
 19 20  2  0
 20 21  1  0
 21 22  1  0
 22 23  1  0
 23 24  1  0
 24 25  1  0
 25 26  1  0
 26 27  1  0
 27 28  1  0
 27 29  1  0
 20 30  1  0
 30 31  2  0
  5 32  1  0
 32 33  2  0
 33  2  1  0
 16  6  1  0
 31 17  1  0
 14  8  1  0
 29 24  1  0
  1 34  1  0
  3 35  1  0
  4 36  1  0
  6 37  1  6
  9 38  1  0
 11 39  1  0
 12 40  1  0
 13 41  1  0
 16 42  1  1
 18 43  1  0
 19 44  1  0
 22 45  1  0
 22 46  1  0
 23 47  1  0
 23 48  1  0
 25 49  1  0
 25 50  1  0
 26 51  1  0
 26 52  1  0
 27 53  1  6
 29 54  1  0
 29 55  1  0
 30 56  1  0
 31 57  1  0
 32 58  1  0
 33 59  1  0
M  END
$$$$
CMP_0
     RDKit          3D

 59 63  0  0  0  0  0  0  0  0999 V2000
   -4.6418   -4.2774    0.3817 O   0  0  0  0  0  0  0  0  0  0  0  0
   -4.2719   -3.0540   -0.1724 C   0  0  0  0  0  0  0  0  0  0  0  0
   -3.3319   -2.2554    0.4827 C   0  0  0  0  0  0  0  0  0  0  0  0
   -2.9489   -1.0254   -0.0599 C   0  0  0  0  0  0  0  0  0  0  0  0
   -3.5065   -0.5725   -1.2747 C   0  0  0  0  0  0  0  0  0  0  0  0
   -3.1442    0.7612   -1.9210 C   0  0  1  0  0  0  0  0  0  0  0  0
   -4.5674    1.9023   -1.8945 S   0  0  0  0  0  0  0  0  0  0  0  0
   -4.5431    2.1585   -0.1209 C   0  0  0  0  0  0  0  0  0  0  0  0
   -5.7587    2.3111    0.5576 C   0  0  0  0  0  0  0  0  0  0  0  0
   -5.7708    2.5896    1.9308 C   0  0  0  0  0  0  0  0  0  0  0  0
   -6.9747    2.7547    2.6120 O   0  0  0  0  0  0  0  0  0  0  0  0
   -4.5633    2.7090    2.6244 C   0  0  0  0  0  0  0  0  0  0  0  0
   -3.3493    2.5305    1.9555 C   0  0  0  0  0  0  0  0  0  0  0  0
   -3.3304    2.2348    0.5876 C   0  0  0  0  0  0  0  0  0  0  0  0
   -2.0982    1.9467   -0.0145 O   0  0  0  0  0  0  0  0  0  0  0  0
   -1.9025    1.5159   -1.3686 C   0  0  1  0  0  0  0  0  0  0  0  0
   -0.5775    0.7659   -1.4719 C   0  0  0  0  0  0  0  0  0  0  0  0
    0.5365    1.2686   -0.7741 C   0  0  0  0  0  0  0  0  0  0  0  0
    1.7794    0.6351   -0.8511 C   0  0  0  0  0  0  0  0  0  0  0  0
    1.9436   -0.5126   -1.6463 C   0  0  0  0  0  0  0  0  0  0  0  0
    3.1670   -1.1939   -1.7576 O   0  0  0  0  0  0  0  0  0  0  0  0
    4.3486   -0.9067   -1.0093 C   0  0  0  0  0  0  0  0  0  0  0  0
    4.2109   -1.4343    0.4351 C   0  0  0  0  0  0  0  0  0  0  0  0
    5.3386   -1.0818    1.3299 N   0  0  0  0  0  0  0  0  0  0  0  0
    6.6442   -1.5641    0.8625 C   0  0  0  0  0  0  0  0  0  0  0  0
    7.4032   -0.3717    0.3108 C   0  0  0  0  0  0  0  0  0  0  0  0
    6.8067    0.8304    1.0158 C   0  0  1  0  0  0  0  0  0  0  0  0
    6.6327    1.8807    0.1295 F   0  0  0  0  0  0  0  0  0  0  0  0
    5.4665    0.3633    1.5783 C   0  0  0  0  0  0  0  0  0  0  0  0
    0.8506   -0.9975   -2.3694 C   0  0  0  0  0  0  0  0  0  0  0  0
   -0.3938   -0.3661   -2.2944 C   0  0  0  0  0  0  0  0  0  0  0  0
   -4.4507   -1.3891   -1.9245 C   0  0  0  0  0  0  0  0  0  0  0  0
   -4.8305   -2.6180   -1.3786 C   0  0  0  0  0  0  0  0  0  0  0  0
   -5.3191   -4.8803   -0.0708 H   0  0  0  0  0  0  0  0  0  0  0  0
   -2.8941   -2.5901    1.4147 H   0  0  0  0  0  0  0  0  0  0  0  0
   -2.2104   -0.4503    0.4760 H   0  0  0  0  0  0  0  0  0  0  0  0
   -2.9624    0.5750   -3.0013 H   0  0  0  0  0  0  0  0  0  0  0  0
   -6.6926    2.2367    0.0146 H   0  0  0  0  0  0  0  0  0  0  0  0
   -7.8668    2.6788    2.1369 H   0  0  0  0  0  0  0  0  0  0  0  0
   -4.5658    2.9259    3.6851 H   0  0  0  0  0  0  0  0  0  0  0  0
   -2.4202    2.5927    2.5077 H   0  0  0  0  0  0  0  0  0  0  0  0
   -1.7844    2.4319   -1.9886 H   0  0  0  0  0  0  0  0  0  0  0  0
    0.4457    2.1587   -0.1639 H   0  0  0  0  0  0  0  0  0  0  0  0
    2.6029    1.0531   -0.2915 H   0  0  0  0  0  0  0  0  0  0  0  0
    5.1894   -1.4270   -1.5105 H   0  0  0  0  0  0  0  0  0  0  0  0
    4.5702    0.1791   -1.0460 H   0  0  0  0  0  0  0  0  0  0  0  0
    3.2674   -1.0562    0.8834 H   0  0  0  0  0  0  0  0  0  0  0  0
    4.1104   -2.5409    0.4005 H   0  0  0  0  0  0  0  0  0  0  0  0
    7.1972   -1.9719    1.7364 H   0  0  0  0  0  0  0  0  0  0  0  0
    6.5648   -2.3813    0.1117 H   0  0  0  0  0  0  0  0  0  0  0  0
    7.2404   -0.2966   -0.7862 H   0  0  0  0  0  0  0  0  0  0  0  0
    8.4934   -0.4603    0.5096 H   0  0  0  0  0  0  0  0  0  0  0  0
    7.4755    1.1558    1.8430 H   0  0  0  0  0  0  0  0  0  0  0  0
    4.6254    0.9511    1.1495 H   0  0  0  0  0  0  0  0  0  0  0  0
    5.4483    0.5343    2.6762 H   0  0  0  0  0  0  0  0  0  0  0  0
    0.9666   -1.8730   -2.9960 H   0  0  0  0  0  0  0  0  0  0  0  0
   -1.1995   -0.7816   -2.8803 H   0  0  0  0  0  0  0  0  0  0  0  0
   -4.8957   -1.0709   -2.8595 H   0  0  0  0  0  0  0  0  0  0  0  0
   -5.5592   -3.2303   -1.8949 H   0  0  0  0  0  0  0  0  0  0  0  0
  1  2  1  0
  2  3  2  0
  3  4  1  0
  4  5  2  0
  5  6  1  0
  6  7  1  0
  7  8  1  0
  8  9  2  0
  9 10  1  0
 10 11  1  0
 10 12  2  0
 12 13  1  0
 13 14  2  0
 14 15  1  0
 15 16  1  0
 16 17  1  0
 17 18  2  0
 18 19  1  0
 19 20  2  0
 20 21  1  0
 21 22  1  0
 22 23  1  0
 23 24  1  0
 24 25  1  0
 25 26  1  0
 26 27  1  0
 27 28  1  0
 27 29  1  0
 20 30  1  0
 30 31  2  0
  5 32  1  0
 32 33  2  0
 33  2  1  0
 16  6  1  0
 31 17  1  0
 14  8  1  0
 29 24  1  0
  1 34  1  0
  3 35  1  0
  4 36  1  0
  6 37  1  6
  9 38  1  0
 11 39  1  0
 12 40  1  0
 13 41  1  0
 16 42  1  6
 18 43  1  0
 19 44  1  0
 22 45  1  0
 22 46  1  0
 23 47  1  0
 23 48  1  0
 25 49  1  0
 25 50  1  0
 26 51  1  0
 26 52  1  0
 27 53  1  1
 29 54  1  0
 29 55  1  0
 30 56  1  0
 31 57  1  0
 32 58  1  0
 33 59  1  0
M  END
$$$$
CMP_1
     RDKit          3D

 62 66  0  0  0  0  0  0  0  0999 V2000
   -4.8319    4.2243   -1.2720 O   0  0  0  0  0  0  0  0  0  0  0  0
   -4.4073    3.1252   -0.5290 C   0  0  0  0  0  0  0  0  0  0  0  0
   -5.1847    1.9647   -0.5067 C   0  0  0  0  0  0  0  0  0  0  0  0
   -4.7715    0.8520    0.2318 C   0  0  0  0  0  0  0  0  0  0  0  0
   -3.5715    0.8874    0.9705 C   0  0  0  0  0  0  0  0  0  0  0  0
   -3.0489   -0.3153    1.7459 C   0  0  1  0  0  0  0  0  0  0  0  0
   -4.3248   -1.1542    2.7583 S   0  0  0  0  0  0  0  0  0  0  0  0
   -5.0300   -2.2467    1.5050 C   0  0  0  0  0  0  0  0  0  0  0  0
   -6.3045   -2.7782    1.7480 C   0  0  0  0  0  0  0  0  0  0  0  0
   -6.9186   -3.6153    0.8071 C   0  0  0  0  0  0  0  0  0  0  0  0
   -8.1797   -4.1556    1.0522 O   0  0  0  0  0  0  0  0  0  0  0  0
   -6.2617   -3.9128   -0.3890 C   0  0  0  0  0  0  0  0  0  0  0  0
   -4.9982   -3.3776   -0.6460 C   0  0  0  0  0  0  0  0  0  0  0  0
   -4.3751   -2.5446    0.2903 C   0  0  0  0  0  0  0  0  0  0  0  0
   -3.1378   -1.9896   -0.0430 O   0  0  0  0  0  0  0  0  0  0  0  0
   -2.2803   -1.3367    0.8873 C   0  0  1  0  0  0  0  0  0  0  0  0
   -1.1156   -0.6934    0.1656 C   0  0  0  0  0  0  0  0  0  0  0  0
   -1.2653   -0.1699   -1.1309 C   0  0  0  0  0  0  0  0  0  0  0  0
   -0.1949    0.4658   -1.7648 C   0  0  0  0  0  0  0  0  0  0  0  0
    1.0370    0.6044   -1.1168 C   0  0  0  0  0  0  0  0  0  0  0  0
    2.0774    1.2509   -1.8045 O   0  0  0  0  0  0  0  0  0  0  0  0
    3.4100    1.4199   -1.3205 C   0  0  0  0  0  0  0  0  0  0  0  0
    4.1924    0.0932   -1.4213 C   0  0  0  0  0  0  0  0  0  0  0  0
    5.5440    0.1346   -0.8196 N   0  0  0  0  0  0  0  0  0  0  0  0
    5.5201    0.0709    0.6607 C   0  0  0  0  0  0  0  0  0  0  0  0
    6.9025    0.3651    1.2837 C   0  0  0  0  0  0  0  0  0  0  0  0
    8.0322    0.1074    0.2821 C   0  0  0  0  0  0  0  0  0  0  0  0
    7.8642    0.9723   -0.9803 C   0  0  0  0  0  0  0  0  0  0  0  0
    6.3862    1.2341   -1.3250 C   0  0  0  0  0  0  0  0  0  0  0  0
    1.1828    0.1029    0.1912 C   0  0  0  0  0  0  0  0  0  0  0  0
    0.1146   -0.5392    0.8239 C   0  0  0  0  0  0  0  0  0  0  0  0
   -2.7947    2.0620    0.9349 C   0  0  0  0  0  0  0  0  0  0  0  0
   -3.2096    3.1709    0.1931 C   0  0  0  0  0  0  0  0  0  0  0  0
   -4.2902    5.0806   -1.3081 H   0  0  0  0  0  0  0  0  0  0  0  0
   -6.1113    1.9228   -1.0659 H   0  0  0  0  0  0  0  0  0  0  0  0
   -5.4000   -0.0226    0.2172 H   0  0  0  0  0  0  0  0  0  0  0  0
   -2.3262    0.0631    2.5031 H   0  0  0  0  0  0  0  0  0  0  0  0
   -6.8184   -2.5437    2.6721 H   0  0  0  0  0  0  0  0  0  0  0  0
   -8.6740   -3.9762    1.9194 H   0  0  0  0  0  0  0  0  0  0  0  0
   -6.7328   -4.5561   -1.1217 H   0  0  0  0  0  0  0  0  0  0  0  0
   -4.5025   -3.6040   -1.5817 H   0  0  0  0  0  0  0  0  0  0  0  0
   -1.8757   -2.1196    1.5676 H   0  0  0  0  0  0  0  0  0  0  0  0
   -2.2132   -0.2417   -1.6492 H   0  0  0  0  0  0  0  0  0  0  0  0
   -0.3246    0.8589   -2.7651 H   0  0  0  0  0  0  0  0  0  0  0  0
    3.3889    1.8283   -0.2904 H   0  0  0  0  0  0  0  0  0  0  0  0
    3.9017    2.1800   -1.9621 H   0  0  0  0  0  0  0  0  0  0  0  0
    4.2874   -0.1765   -2.4950 H   0  0  0  0  0  0  0  0  0  0  0  0
    3.6082   -0.7278   -0.9541 H   0  0  0  0  0  0  0  0  0  0  0  0
    4.7829    0.7825    1.0893 H   0  0  0  0  0  0  0  0  0  0  0  0
    5.2076   -0.9538    0.9628 H   0  0  0  0  0  0  0  0  0  0  0  0
    7.0517   -0.2658    2.1865 H   0  0  0  0  0  0  0  0  0  0  0  0
    6.9451    1.4301    1.6061 H   0  0  0  0  0  0  0  0  0  0  0  0
    8.0239   -0.9688   -0.0013 H   0  0  0  0  0  0  0  0  0  0  0  0
    9.0131    0.3257    0.7576 H   0  0  0  0  0  0  0  0  0  0  0  0
    8.3768    1.9475   -0.8336 H   0  0  0  0  0  0  0  0  0  0  0  0
    8.3610    0.4589   -1.8322 H   0  0  0  0  0  0  0  0  0  0  0  0
    6.2885    1.3249   -2.4296 H   0  0  0  0  0  0  0  0  0  0  0  0
    6.0701    2.1998   -0.8691 H   0  0  0  0  0  0  0  0  0  0  0  0
    2.1128    0.2050    0.7318 H   0  0  0  0  0  0  0  0  0  0  0  0
    0.2450   -0.9106    1.8331 H   0  0  0  0  0  0  0  0  0  0  0  0
   -1.8559    2.1168    1.4727 H   0  0  0  0  0  0  0  0  0  0  0  0
   -2.5966    4.0629    0.1774 H   0  0  0  0  0  0  0  0  0  0  0  0
  1  2  1  0
  2  3  2  0
  3  4  1  0
  4  5  2  0
  5  6  1  0
  6  7  1  0
  7  8  1  0
  8  9  2  0
  9 10  1  0
 10 11  1  0
 10 12  2  0
 12 13  1  0
 13 14  2  0
 14 15  1  0
 15 16  1  0
 16 17  1  0
 17 18  2  0
 18 19  1  0
 19 20  2  0
 20 21  1  0
 21 22  1  0
 22 23  1  0
 23 24  1  0
 24 25  1  0
 25 26  1  0
 26 27  1  0
 27 28  1  0
 28 29  1  0
 20 30  1  0
 30 31  2  0
  5 32  1  0
 32 33  2  0
 33  2  1  0
 16  6  1  0
 31 17  1  0
 14  8  1  0
 29 24  1  0
  1 34  1  0
  3 35  1  0
  4 36  1  0
  6 37  1  1
  9 38  1  0
 11 39  1  0
 12 40  1  0
 13 41  1  0
 16 42  1  1
 18 43  1  0
 19 44  1  0
 22 45  1  0
 22 46  1  0
 23 47  1  0
 23 48  1  0
 25 49  1  0
 25 50  1  0
 26 51  1  0
 26 52  1  0
 27 53  1  0
 27 54  1  0
 28 55  1  0
 28 56  1  0
 29 57  1  0
 29 58  1  0
 30 59  1  0
 31 60  1  0
 32 61  1  0
 33 62  1  0
M  END
$$$$
CMP_1
     RDKit          3D

 62 66  0  0  0  0  0  0  0  0999 V2000
    2.4135    1.3039    4.3642 O   0  0  0  0  0  0  0  0  0  0  0  0
    2.6120    1.4105    2.9895 C   0  0  0  0  0  0  0  0  0  0  0  0
    3.7890    0.9180    2.4214 C   0  0  0  0  0  0  0  0  0  0  0  0
    4.0021    1.0139    1.0431 C   0  0  0  0  0  0  0  0  0  0  0  0
    3.0388    1.6153    0.2090 C   0  0  0  0  0  0  0  0  0  0  0  0
    3.1961    1.6907   -1.3046 C   0  0  1  0  0  0  0  0  0  0  0  0
    4.8475    2.2688   -1.8454 S   0  0  0  0  0  0  0  0  0  0  0  0
    5.7384    0.6984   -1.8215 C   0  0  0  0  0  0  0  0  0  0  0  0
    7.1387    0.7465   -1.7830 C   0  0  0  0  0  0  0  0  0  0  0  0
    7.8916   -0.4308   -1.7435 C   0  0  0  0  0  0  0  0  0  0  0  0
    9.2823   -0.3575   -1.7135 O   0  0  0  0  0  0  0  0  0  0  0  0
    7.2420   -1.6702   -1.7323 C   0  0  0  0  0  0  0  0  0  0  0  0
    5.8471   -1.7286   -1.7533 C   0  0  0  0  0  0  0  0  0  0  0  0
    5.0872   -0.5540   -1.7965 C   0  0  0  0  0  0  0  0  0  0  0  0
    3.6957   -0.6675   -1.7553 O   0  0  0  0  0  0  0  0  0  0  0  0
    2.8020    0.4009   -2.0482 C   0  0  1  0  0  0  0  0  0  0  0  0
    1.3782   -0.0077   -1.7370 C   0  0  0  0  0  0  0  0  0  0  0  0
    0.3175    0.5313   -2.4822 C   0  0  0  0  0  0  0  0  0  0  0  0
   -1.0052    0.2109   -2.1649 C   0  0  0  0  0  0  0  0  0  0  0  0
   -1.2938   -0.6406   -1.0931 C   0  0  0  0  0  0  0  0  0  0  0  0
   -2.6379   -0.9243   -0.8110 O   0  0  0  0  0  0  0  0  0  0  0  0
   -3.0787   -1.7562    0.2598 C   0  0  0  0  0  0  0  0  0  0  0  0
   -4.6057   -1.8224    0.2643 C   0  0  0  0  0  0  0  0  0  0  0  0
   -5.1869   -0.4698    0.4022 N   0  0  0  0  0  0  0  0  0  0  0  0
   -6.4986   -0.3898   -0.2850 C   0  0  0  0  0  0  0  0  0  0  0  0
   -7.2874    0.8486    0.1513 C   0  0  0  0  0  0  0  0  0  0  0  0
   -7.6081    0.7996    1.6552 C   0  0  0  0  0  0  0  0  0  0  0  0
   -6.6073   -0.0582    2.4470 C   0  0  0  0  0  0  0  0  0  0  0  0
   -5.2082   -0.0029    1.8167 C   0  0  0  0  0  0  0  0  0  0  0  0
   -0.2344   -1.1752   -0.3366 C   0  0  0  0  0  0  0  0  0  0  0  0
    1.0887   -0.8575   -0.6543 C   0  0  0  0  0  0  0  0  0  0  0  0
    1.8544    2.1040    0.7945 C   0  0  0  0  0  0  0  0  0  0  0  0
    1.6439    2.0039    2.1721 C   0  0  0  0  0  0  0  0  0  0  0  0
    1.5706    1.6522    4.8058 H   0  0  0  0  0  0  0  0  0  0  0  0
    4.5401    0.4557    3.0494 H   0  0  0  0  0  0  0  0  0  0  0  0
    4.9215    0.6170    0.6474 H   0  0  0  0  0  0  0  0  0  0  0  0
    2.5105    2.4856   -1.6737 H   0  0  0  0  0  0  0  0  0  0  0  0
    7.6469    1.7029   -1.7871 H   0  0  0  0  0  0  0  0  0  0  0  0
    9.8561   -1.1922   -1.6836 H   0  0  0  0  0  0  0  0  0  0  0  0
    7.8159   -2.5875   -1.6986 H   0  0  0  0  0  0  0  0  0  0  0  0
    5.3522   -2.6912   -1.7267 H   0  0  0  0  0  0  0  0  0  0  0  0
    2.8751    0.6007   -3.1412 H   0  0  0  0  0  0  0  0  0  0  0  0
    0.5145    1.2072   -3.3051 H   0  0  0  0  0  0  0  0  0  0  0  0
   -1.8120    0.6337   -2.7502 H   0  0  0  0  0  0  0  0  0  0  0  0
   -2.7087   -1.3531    1.2261 H   0  0  0  0  0  0  0  0  0  0  0  0
   -2.6752   -2.7830    0.1232 H   0  0  0  0  0  0  0  0  0  0  0  0
   -4.9568   -2.4924    1.0812 H   0  0  0  0  0  0  0  0  0  0  0  0
   -4.9137   -2.2902   -0.6989 H   0  0  0  0  0  0  0  0  0  0  0  0
   -7.1126   -1.2973   -0.0797 H   0  0  0  0  0  0  0  0  0  0  0  0
   -6.3287   -0.3331   -1.3821 H   0  0  0  0  0  0  0  0  0  0  0  0
   -8.2314    0.9173   -0.4313 H   0  0  0  0  0  0  0  0  0  0  0  0
   -6.6828    1.7553   -0.0719 H   0  0  0  0  0  0  0  0  0  0  0  0
   -8.6290    0.3853    1.8051 H   0  0  0  0  0  0  0  0  0  0  0  0
   -7.6071    1.8365    2.0567 H   0  0  0  0  0  0  0  0  0  0  0  0
   -6.5600    0.2994    3.4981 H   0  0  0  0  0  0  0  0  0  0  0  0
   -6.9522   -1.1153    2.4647 H   0  0  0  0  0  0  0  0  0  0  0  0
   -4.8487    1.0483    1.8423 H   0  0  0  0  0  0  0  0  0  0  0  0
   -4.5108   -0.5831    2.4597 H   0  0  0  0  0  0  0  0  0  0  0  0
   -0.4220   -1.8306    0.5027 H   0  0  0  0  0  0  0  0  0  0  0  0
    1.8859   -1.2629   -0.0438 H   0  0  0  0  0  0  0  0  0  0  0  0
    1.0824    2.5522    0.1810 H   0  0  0  0  0  0  0  0  0  0  0  0
    0.7254    2.3831    2.6016 H   0  0  0  0  0  0  0  0  0  0  0  0
  1  2  1  0
  2  3  2  0
  3  4  1  0
  4  5  2  0
  5  6  1  0
  6  7  1  0
  7  8  1  0
  8  9  2  0
  9 10  1  0
 10 11  1  0
 10 12  2  0
 12 13  1  0
 13 14  2  0
 14 15  1  0
 15 16  1  0
 16 17  1  0
 17 18  2  0
 18 19  1  0
 19 20  2  0
 20 21  1  0
 21 22  1  0
 22 23  1  0
 23 24  1  0
 24 25  1  0
 25 26  1  0
 26 27  1  0
 27 28  1  0
 28 29  1  0
 20 30  1  0
 30 31  2  0
  5 32  1  0
 32 33  2  0
 33  2  1  0
 16  6  1  0
 31 17  1  0
 14  8  1  0
 29 24  1  0
  1 34  1  0
  3 35  1  0
  4 36  1  0
  6 37  1  6
  9 38  1  0
 11 39  1  0
 12 40  1  0
 13 41  1  0
 16 42  1  6
 18 43  1  0
 19 44  1  0
 22 45  1  0
 22 46  1  0
 23 47  1  0
 23 48  1  0
 25 49  1  0
 25 50  1  0
 26 51  1  0
 26 52  1  0
 27 53  1  0
 27 54  1  0
 28 55  1  0
 28 56  1  0
 29 57  1  0
 29 58  1  0
 30 59  1  0
 31 60  1  0
 32 61  1  0
 33 62  1  0
M  END
$$$$
CMP_1
     RDKit          3D

 62 66  0  0  0  0  0  0  0  0999 V2000
   -4.3087    5.1678   -2.1669 O   0  0  0  0  0  0  0  0  0  0  0  0
   -4.2664    3.8593   -1.6903 C   0  0  0  0  0  0  0  0  0  0  0  0
   -3.2016    3.0268   -2.0559 C   0  0  0  0  0  0  0  0  0  0  0  0
   -3.1333    1.7152   -1.5790 C   0  0  0  0  0  0  0  0  0  0  0  0
   -4.1473    1.2105   -0.7381 C   0  0  0  0  0  0  0  0  0  0  0  0
   -4.0755   -0.1868   -0.1542 C   0  0  1  0  0  0  0  0  0  0  0  0
   -3.4014   -1.3856   -1.3576 S   0  0  0  0  0  0  0  0  0  0  0  0
   -3.7208   -2.7970   -0.3030 C   0  0  0  0  0  0  0  0  0  0  0  0
   -4.1387   -3.9918   -0.8913 C   0  0  0  0  0  0  0  0  0  0  0  0
   -4.3167   -5.1395   -0.1131 C   0  0  0  0  0  0  0  0  0  0  0  0
   -4.7205   -6.3255   -0.7187 O   0  0  0  0  0  0  0  0  0  0  0  0
   -4.0767   -5.0880    1.2660 C   0  0  0  0  0  0  0  0  0  0  0  0
   -3.6747   -3.8914    1.8618 C   0  0  0  0  0  0  0  0  0  0  0  0
   -3.5163   -2.7330    1.0899 C   0  0  0  0  0  0  0  0  0  0  0  0
   -3.2077   -1.5300    1.7439 O   0  0  0  0  0  0  0  0  0  0  0  0
   -3.2632   -0.2199    1.1681 C   0  0  1  0  0  0  0  0  0  0  0  0
   -1.8632    0.3448    1.0259 C   0  0  0  0  0  0  0  0  0  0  0  0
   -1.6222    1.6892    1.3525 C   0  0  0  0  0  0  0  0  0  0  0  0
   -0.3619    2.2553    1.1526 C   0  0  0  0  0  0  0  0  0  0  0  0
    0.6822    1.4984    0.6093 C   0  0  0  0  0  0  0  0  0  0  0  0
    1.9053    2.1437    0.3600 O   0  0  0  0  0  0  0  0  0  0  0  0
    3.0154    1.5651   -0.3272 C   0  0  0  0  0  0  0  0  0  0  0  0
    3.8818    0.7312    0.6293 C   0  0  0  0  0  0  0  0  0  0  0  0
    4.7615   -0.2172   -0.0949 N   0  0  0  0  0  0  0  0  0  0  0  0
    5.3900   -1.2111    0.8220 C   0  0  0  0  0  0  0  0  0  0  0  0
    6.8997   -0.9846    1.0699 C   0  0  0  0  0  0  0  0  0  0  0  0
    7.2432    0.5048    1.1229 C   0  0  0  0  0  0  0  0  0  0  0  0
    6.8091    1.2402   -0.1609 C   0  0  0  0  0  0  0  0  0  0  0  0
    5.7567    0.4518   -0.9655 C   0  0  0  0  0  0  0  0  0  0  0  0
    0.4562    0.1379    0.3115 C   0  0  0  0  0  0  0  0  0  0  0  0
   -0.8066   -0.4285    0.5137 C   0  0  0  0  0  0  0  0  0  0  0  0
   -5.2056    2.0606   -0.3643 C   0  0  0  0  0  0  0  0  0  0  0  0
   -5.2694    3.3727   -0.8408 C   0  0  0  0  0  0  0  0  0  0  0  0
   -5.0218    5.8200   -1.8595 H   0  0  0  0  0  0  0  0  0  0  0  0
   -2.4130    3.4015   -2.6948 H   0  0  0  0  0  0  0  0  0  0  0  0
   -2.2765    1.1081   -1.8513 H   0  0  0  0  0  0  0  0  0  0  0  0
   -5.1166   -0.5138    0.0739 H   0  0  0  0  0  0  0  0  0  0  0  0
   -4.3050   -4.0374   -1.9592 H   0  0  0  0  0  0  0  0  0  0  0  0
   -4.8947   -7.1647   -0.1745 H   0  0  0  0  0  0  0  0  0  0  0  0
   -4.2070   -5.9732    1.8750 H   0  0  0  0  0  0  0  0  0  0  0  0
   -3.5160   -3.8541    2.9331 H   0  0  0  0  0  0  0  0  0  0  0  0
   -3.8165    0.4118    1.8982 H   0  0  0  0  0  0  0  0  0  0  0  0
   -2.4209    2.3110    1.7417 H   0  0  0  0  0  0  0  0  0  0  0  0
   -0.2015    3.3022    1.3913 H   0  0  0  0  0  0  0  0  0  0  0  0
    2.6620    0.9585   -1.1866 H   0  0  0  0  0  0  0  0  0  0  0  0
    3.6224    2.3945   -0.7380 H   0  0  0  0  0  0  0  0  0  0  0  0
    4.4618    1.4037    1.2971 H   0  0  0  0  0  0  0  0  0  0  0  0
    3.1889    0.1577    1.2835 H   0  0  0  0  0  0  0  0  0  0  0  0
    4.8735   -1.2448    1.8078 H   0  0  0  0  0  0  0  0  0  0  0  0
    5.2632   -2.2229    0.3859 H   0  0  0  0  0  0  0  0  0  0  0  0
    7.4877   -1.4585    0.2530 H   0  0  0  0  0  0  0  0  0  0  0  0
    7.2032   -1.4702    2.0248 H   0  0  0  0  0  0  0  0  0  0  0  0
    6.7461    0.9611    2.0061 H   0  0  0  0  0  0  0  0  0  0  0  0
    8.3381    0.6324    1.2682 H   0  0  0  0  0  0  0  0  0  0  0  0
    7.6955    1.4300   -0.8107 H   0  0  0  0  0  0  0  0  0  0  0  0
    6.3966    2.2399    0.1074 H   0  0  0  0  0  0  0  0  0  0  0  0
    6.2770   -0.3206   -1.5787 H   0  0  0  0  0  0  0  0  0  0  0  0
    5.2616    1.1197   -1.7024 H   0  0  0  0  0  0  0  0  0  0  0  0
    1.2440   -0.4901   -0.0857 H   0  0  0  0  0  0  0  0  0  0  0  0
   -0.9613   -1.4669    0.2557 H   0  0  0  0  0  0  0  0  0  0  0  0
   -5.9781    1.7083    0.3050 H   0  0  0  0  0  0  0  0  0  0  0  0
   -6.0956    4.0114   -0.5433 H   0  0  0  0  0  0  0  0  0  0  0  0
  1  2  1  0
  2  3  2  0
  3  4  1  0
  4  5  2  0
  5  6  1  0
  6  7  1  0
  7  8  1  0
  8  9  2  0
  9 10  1  0
 10 11  1  0
 10 12  2  0
 12 13  1  0
 13 14  2  0
 14 15  1  0
 15 16  1  0
 16 17  1  0
 17 18  2  0
 18 19  1  0
 19 20  2  0
 20 21  1  0
 21 22  1  0
 22 23  1  0
 23 24  1  0
 24 25  1  0
 25 26  1  0
 26 27  1  0
 27 28  1  0
 28 29  1  0
 20 30  1  0
 30 31  2  0
  5 32  1  0
 32 33  2  0
 33  2  1  0
 16  6  1  0
 31 17  1  0
 14  8  1  0
 29 24  1  0
  1 34  1  0
  3 35  1  0
  4 36  1  0
  6 37  1  1
  9 38  1  0
 11 39  1  0
 12 40  1  0
 13 41  1  0
 16 42  1  1
 18 43  1  0
 19 44  1  0
 22 45  1  0
 22 46  1  0
 23 47  1  0
 23 48  1  0
 25 49  1  0
 25 50  1  0
 26 51  1  0
 26 52  1  0
 27 53  1  0
 27 54  1  0
 28 55  1  0
 28 56  1  0
 29 57  1  0
 29 58  1  0
 30 59  1  0
 31 60  1  0
 32 61  1  0
 33 62  1  0
M  END
$$$$
CMP_1
     RDKit          3D

 62 66  0  0  0  0  0  0  0  0999 V2000
   -4.0915   -0.8500    4.4192 O   0  0  0  0  0  0  0  0  0  0  0  0
   -4.0217   -0.8400    3.0279 C   0  0  0  0  0  0  0  0  0  0  0  0
   -3.2889   -1.8149    2.3424 C   0  0  0  0  0  0  0  0  0  0  0  0
   -3.2261   -1.7937    0.9468 C   0  0  0  0  0  0  0  0  0  0  0  0
   -3.8979   -0.7985    0.2103 C   0  0  0  0  0  0  0  0  0  0  0  0
   -3.7518   -0.7815   -1.3061 C   0  0  1  0  0  0  0  0  0  0  0  0
   -5.3287   -0.5010   -2.1944 S   0  0  0  0  0  0  0  0  0  0  0  0
   -5.3714    1.3042   -2.1690 C   0  0  0  0  0  0  0  0  0  0  0  0
   -6.6064    1.9280   -2.3933 C   0  0  0  0  0  0  0  0  0  0  0  0
   -6.7162    3.3214   -2.3681 C   0  0  0  0  0  0  0  0  0  0  0  0
   -7.9527    3.9186   -2.6031 O   0  0  0  0  0  0  0  0  0  0  0  0
   -5.5850    4.1023   -2.1058 C   0  0  0  0  0  0  0  0  0  0  0  0
   -4.3535    3.4901   -1.8650 C   0  0  0  0  0  0  0  0  0  0  0  0
   -4.2354    2.0957   -1.8931 C   0  0  0  0  0  0  0  0  0  0  0  0
   -2.9941    1.5330   -1.5881 O   0  0  0  0  0  0  0  0  0  0  0  0
   -2.6595    0.1705   -1.8275 C   0  0  1  0  0  0  0  0  0  0  0  0
   -1.3074   -0.1498   -1.2274 C   0  0  0  0  0  0  0  0  0  0  0  0
   -0.4882   -1.1195   -1.8276 C   0  0  0  0  0  0  0  0  0  0  0  0
    0.7392   -1.4648   -1.2547 C   0  0  0  0  0  0  0  0  0  0  0  0
    1.1627   -0.8518   -0.0607 C   0  0  0  0  0  0  0  0  0  0  0  0
    2.3837   -1.1639    0.5541 O   0  0  0  0  0  0  0  0  0  0  0  0
    3.3306   -2.0976    0.0398 C   0  0  0  0  0  0  0  0  0  0  0  0
    4.5483   -2.1642    0.9656 C   0  0  0  0  0  0  0  0  0  0  0  0
    5.1139   -0.8217    1.2300 N   0  0  0  0  0  0  0  0  0  0  0  0
    6.0729   -0.8529    2.3674 C   0  0  0  0  0  0  0  0  0  0  0  0
    7.5333   -0.9458    1.9048 C   0  0  0  0  0  0  0  0  0  0  0  0
    7.9192    0.2663    1.0398 C   0  0  0  0  0  0  0  0  0  0  0  0
    6.7151    0.8686    0.2970 C   0  0  0  0  0  0  0  0  0  0  0  0
    5.6651   -0.2062   -0.0075 C   0  0  0  0  0  0  0  0  0  0  0  0
    0.3399    0.1037    0.5446 C   0  0  0  0  0  0  0  0  0  0  0  0
   -0.8859    0.4516   -0.0281 C   0  0  0  0  0  0  0  0  0  0  0  0
   -4.6263    0.1813    0.9138 C   0  0  0  0  0  0  0  0  0  0  0  0
   -4.6888    0.1551    2.3102 C   0  0  0  0  0  0  0  0  0  0  0  0
   -3.6197   -1.5594    4.9680 H   0  0  0  0  0  0  0  0  0  0  0  0
   -2.7633   -2.5871    2.8896 H   0  0  0  0  0  0  0  0  0  0  0  0
   -2.6388   -2.5497    0.4403 H   0  0  0  0  0  0  0  0  0  0  0  0
   -3.4532   -1.8047   -1.6259 H   0  0  0  0  0  0  0  0  0  0  0  0
   -7.4864    1.3288   -2.5921 H   0  0  0  0  0  0  0  0  0  0  0  0
   -8.0655    4.9256   -2.5899 H   0  0  0  0  0  0  0  0  0  0  0  0
   -5.6604    5.1820   -2.0807 H   0  0  0  0  0  0  0  0  0  0  0  0
   -3.4868    4.1010   -1.6465 H   0  0  0  0  0  0  0  0  0  0  0  0
   -2.5896    0.0382   -2.9309 H   0  0  0  0  0  0  0  0  0  0  0  0
   -0.8034   -1.6138   -2.7382 H   0  0  0  0  0  0  0  0  0  0  0  0
    1.3468   -2.2135   -1.7441 H   0  0  0  0  0  0  0  0  0  0  0  0
    2.8666   -3.1063   -0.0161 H   0  0  0  0  0  0  0  0  0  0  0  0
    3.6444   -1.7979   -0.9829 H   0  0  0  0  0  0  0  0  0  0  0  0
    4.1984   -2.6244    1.9164 H   0  0  0  0  0  0  0  0  0  0  0  0
    5.3185   -2.8386    0.5287 H   0  0  0  0  0  0  0  0  0  0  0  0
    5.8634   -1.6898    3.0699 H   0  0  0  0  0  0  0  0  0  0  0  0
    5.9447    0.0779    2.9613 H   0  0  0  0  0  0  0  0  0  0  0  0
    8.2045   -1.0018    2.7890 H   0  0  0  0  0  0  0  0  0  0  0  0
    7.6660   -1.8814    1.3186 H   0  0  0  0  0  0  0  0  0  0  0  0
    8.3734    1.0526    1.6816 H   0  0  0  0  0  0  0  0  0  0  0  0
    8.6901   -0.0498    0.3036 H   0  0  0  0  0  0  0  0  0  0  0  0
    6.2484    1.6619    0.9216 H   0  0  0  0  0  0  0  0  0  0  0  0
    7.0572    1.3397   -0.6498 H   0  0  0  0  0  0  0  0  0  0  0  0
    4.8362    0.2726   -0.5716 H   0  0  0  0  0  0  0  0  0  0  0  0
    6.1303   -0.9729   -0.6686 H   0  0  0  0  0  0  0  0  0  0  0  0
    0.6505    0.5758    1.4681 H   0  0  0  0  0  0  0  0  0  0  0  0
   -1.5110    1.1800    0.4730 H   0  0  0  0  0  0  0  0  0  0  0  0
   -5.1524    0.9688    0.4015 H   0  0  0  0  0  0  0  0  0  0  0  0
   -5.2551    0.9133    2.8360 H   0  0  0  0  0  0  0  0  0  0  0  0
  1  2  1  0
  2  3  2  0
  3  4  1  0
  4  5  2  0
  5  6  1  0
  6  7  1  0
  7  8  1  0
  8  9  2  0
  9 10  1  0
 10 11  1  0
 10 12  2  0
 12 13  1  0
 13 14  2  0
 14 15  1  0
 15 16  1  0
 16 17  1  0
 17 18  2  0
 18 19  1  0
 19 20  2  0
 20 21  1  0
 21 22  1  0
 22 23  1  0
 23 24  1  0
 24 25  1  0
 25 26  1  0
 26 27  1  0
 27 28  1  0
 28 29  1  0
 20 30  1  0
 30 31  2  0
  5 32  1  0
 32 33  2  0
 33  2  1  0
 16  6  1  0
 31 17  1  0
 14  8  1  0
 29 24  1  0
  1 34  1  0
  3 35  1  0
  4 36  1  0
  6 37  1  6
  9 38  1  0
 11 39  1  0
 12 40  1  0
 13 41  1  0
 16 42  1  6
 18 43  1  0
 19 44  1  0
 22 45  1  0
 22 46  1  0
 23 47  1  0
 23 48  1  0
 25 49  1  0
 25 50  1  0
 26 51  1  0
 26 52  1  0
 27 53  1  0
 27 54  1  0
 28 55  1  0
 28 56  1  0
 29 57  1  0
 29 58  1  0
 30 59  1  0
 31 60  1  0
 32 61  1  0
 33 62  1  0
M  END
$$$$
CMP_1
     RDKit          3D

 62 66  0  0  0  0  0  0  0  0999 V2000
   -3.7473    5.2332   -2.2911 O   0  0  0  0  0  0  0  0  0  0  0  0
   -3.8244    4.0012   -1.6458 C   0  0  0  0  0  0  0  0  0  0  0  0
   -3.1231    2.9076   -2.1599 C   0  0  0  0  0  0  0  0  0  0  0  0
   -3.1903    1.6654   -1.5231 C   0  0  0  0  0  0  0  0  0  0  0  0
   -3.9720    1.4979   -0.3621 C   0  0  0  0  0  0  0  0  0  0  0  0
   -4.0196    0.1770    0.3850 C   0  0  1  0  0  0  0  0  0  0  0  0
   -4.0753   -1.2485   -0.7535 S   0  0  0  0  0  0  0  0  0  0  0  0
   -4.3213   -2.4504    0.5565 C   0  0  0  0  0  0  0  0  0  0  0  0
   -5.1385   -3.5596    0.3056 C   0  0  0  0  0  0  0  0  0  0  0  0
   -5.2863   -4.5617    1.2693 C   0  0  0  0  0  0  0  0  0  0  0  0
   -6.0929   -5.6646    0.9971 O   0  0  0  0  0  0  0  0  0  0  0  0
   -4.6176   -4.4513    2.4948 C   0  0  0  0  0  0  0  0  0  0  0  0
   -3.8218   -3.3339    2.7603 C   0  0  0  0  0  0  0  0  0  0  0  0
   -3.6835   -2.3179    1.8074 C   0  0  0  0  0  0  0  0  0  0  0  0
   -2.9513   -1.1728    2.1585 O   0  0  0  0  0  0  0  0  0  0  0  0
   -2.8423    0.0254    1.3800 C   0  0  1  0  0  0  0  0  0  0  0  0
   -1.4743    0.1031    0.7255 C   0  0  0  0  0  0  0  0  0  0  0  0
   -0.8667   -1.0332    0.1625 C   0  0  0  0  0  0  0  0  0  0  0  0
    0.3788   -0.9341   -0.4625 C   0  0  0  0  0  0  0  0  0  0  0  0
    1.0421    0.2945   -0.5374 C   0  0  0  0  0  0  0  0  0  0  0  0
    2.2906    0.3379   -1.1736 O   0  0  0  0  0  0  0  0  0  0  0  0
    3.1043    1.5036   -1.2791 C   0  0  0  0  0  0  0  0  0  0  0  0
    4.4180    1.1728   -2.0090 C   0  0  0  0  0  0  0  0  0  0  0  0
    5.4186    0.4430   -1.1969 N   0  0  0  0  0  0  0  0  0  0  0  0
    4.9424   -0.8603   -0.6958 C   0  0  0  0  0  0  0  0  0  0  0  0
    6.1219   -1.6579   -0.1303 C   0  0  0  0  0  0  0  0  0  0  0  0
    6.8294   -0.8610    0.9728 C   0  0  0  0  0  0  0  0  0  0  0  0
    7.2183    0.5372    0.4767 C   0  0  0  0  0  0  0  0  0  0  0  0
    6.0003    1.2575   -0.1119 C   0  0  0  0  0  0  0  0  0  0  0  0
    0.4402    1.4348    0.0247 C   0  0  0  0  0  0  0  0  0  0  0  0
   -0.8049    1.3371    0.6511 C   0  0  0  0  0  0  0  0  0  0  0  0
   -4.6611    2.6089    0.1555 C   0  0  0  0  0  0  0  0  0  0  0  0
   -4.5931    3.8493   -0.4853 C   0  0  0  0  0  0  0  0  0  0  0  0
   -4.2398    6.0463   -1.9403 H   0  0  0  0  0  0  0  0  0  0  0  0
   -2.5180    3.0221   -3.0502 H   0  0  0  0  0  0  0  0  0  0  0  0
   -2.6169    0.8422   -1.9290 H   0  0  0  0  0  0  0  0  0  0  0  0
   -4.9655    0.1484    0.9717 H   0  0  0  0  0  0  0  0  0  0  0  0
   -5.6396   -3.6580   -0.6495 H   0  0  0  0  0  0  0  0  0  0  0  0
   -6.2153   -6.4101    1.6721 H   0  0  0  0  0  0  0  0  0  0  0  0
   -4.7232   -5.2237    3.2460 H   0  0  0  0  0  0  0  0  0  0  0  0
   -3.3299   -3.2444    3.7206 H   0  0  0  0  0  0  0  0  0  0  0  0
   -2.9218    0.8668    2.1034 H   0  0  0  0  0  0  0  0  0  0  0  0
   -1.3520   -1.9988    0.2035 H   0  0  0  0  0  0  0  0  0  0  0  0
    0.8329   -1.8188   -0.8908 H   0  0  0  0  0  0  0  0  0  0  0  0
    2.5576    2.2667   -1.8743 H   0  0  0  0  0  0  0  0  0  0  0  0
    3.3009    1.9283   -0.2744 H   0  0  0  0  0  0  0  0  0  0  0  0
    4.1852    0.5806   -2.9205 H   0  0  0  0  0  0  0  0  0  0  0  0
    4.8688    2.1221   -2.3731 H   0  0  0  0  0  0  0  0  0  0  0  0
    4.1818   -0.7251    0.1055 H   0  0  0  0  0  0  0  0  0  0  0  0
    4.4862   -1.4457   -1.5243 H   0  0  0  0  0  0  0  0  0  0  0  0
    5.7548   -2.6211    0.2853 H   0  0  0  0  0  0  0  0  0  0  0  0
    6.8418   -1.8834   -0.9477 H   0  0  0  0  0  0  0  0  0  0  0  0
    6.1558   -0.7679    1.8529 H   0  0  0  0  0  0  0  0  0  0  0  0
    7.7421   -1.4057    1.2961 H   0  0  0  0  0  0  0  0  0  0  0  0
    7.6287    1.1300    1.3225 H   0  0  0  0  0  0  0  0  0  0  0  0
    8.0081    0.4499   -0.3016 H   0  0  0  0  0  0  0  0  0  0  0  0
    6.3340    2.2422   -0.5061 H   0  0  0  0  0  0  0  0  0  0  0  0
    5.2607    1.4360    0.6988 H   0  0  0  0  0  0  0  0  0  0  0  0
    0.9227    2.4014   -0.0206 H   0  0  0  0  0  0  0  0  0  0  0  0
   -1.2548    2.2301    1.0674 H   0  0  0  0  0  0  0  0  0  0  0  0
   -5.2493    2.5165    1.0600 H   0  0  0  0  0  0  0  0  0  0  0  0
   -5.1336    4.6929   -0.0755 H   0  0  0  0  0  0  0  0  0  0  0  0
  1  2  1  0
  2  3  2  0
  3  4  1  0
  4  5  2  0
  5  6  1  0
  6  7  1  0
  7  8  1  0
  8  9  2  0
  9 10  1  0
 10 11  1  0
 10 12  2  0
 12 13  1  0
 13 14  2  0
 14 15  1  0
 15 16  1  0
 16 17  1  0
 17 18  2  0
 18 19  1  0
 19 20  2  0
 20 21  1  0
 21 22  1  0
 22 23  1  0
 23 24  1  0
 24 25  1  0
 25 26  1  0
 26 27  1  0
 27 28  1  0
 28 29  1  0
 20 30  1  0
 30 31  2  0
  5 32  1  0
 32 33  2  0
 33  2  1  0
 16  6  1  0
 31 17  1  0
 14  8  1  0
 29 24  1  0
  1 34  1  0
  3 35  1  0
  4 36  1  0
  6 37  1  1
  9 38  1  0
 11 39  1  0
 12 40  1  0
 13 41  1  0
 16 42  1  1
 18 43  1  0
 19 44  1  0
 22 45  1  0
 22 46  1  0
 23 47  1  0
 23 48  1  0
 25 49  1  0
 25 50  1  0
 26 51  1  0
 26 52  1  0
 27 53  1  0
 27 54  1  0
 28 55  1  0
 28 56  1  0
 29 57  1  0
 29 58  1  0
 30 59  1  0
 31 60  1  0
 32 61  1  0
 33 62  1  0
M  END
$$$$
