CHEMBL304552
 OpenBabel01042214213D

 62 66  0  0  0  0  0  0  0  0999 V2000
   31.2180   -0.8040   27.2777 C   0  0  1  0  0  0  0  0  0  0  0  0
   30.0468    0.1886   26.2846 S   0  0  0  0  0  0  0  0  0  0  0  0
   28.6162   -0.7201   26.8615 C   0  0  0  0  0  0  0  0  0  0  0  0
   27.4228   -0.0321   27.1221 C   0  0  0  0  0  0  0  0  0  0  0  0
   26.2606   -0.7410   27.4596 C   0  0  0  0  0  0  0  0  0  0  0  0
   25.0579   -0.0750   27.6871 O   0  0  0  0  0  0  0  0  0  0  0  0
   26.3005   -2.1346   27.5534 C   0  0  0  0  0  0  0  0  0  0  0  0
   27.4922   -2.8218   27.3064 C   0  0  0  0  0  0  0  0  0  0  0  0
   28.6600   -2.1210   26.9797 C   0  0  0  0  0  0  0  0  0  0  0  0
   29.8514   -2.8417   26.8065 O   0  0  0  0  0  0  0  0  0  0  0  0
   31.1797   -2.2977   26.8521 C   0  0  1  0  0  0  0  0  0  0  0  0
   24.9813    0.9339   27.6065 H   0  0  0  0  0  0  0  0  0  0  0  0
   36.4654    1.4949   27.1572 O   0  0  0  0  0  0  0  0  0  0  0  0
   35.1911    0.9338   27.1824 C   0  0  0  0  0  0  0  0  0  0  0  0
   34.8979   -0.0651   28.1156 C   0  0  0  0  0  0  0  0  0  0  0  0
   33.6263   -0.6434   28.1495 C   0  0  0  0  0  0  0  0  0  0  0  0
   32.6307   -0.2445   27.2280 C   0  0  0  0  0  0  0  0  0  0  0  0
   32.9333    0.7730   26.3069 C   0  0  0  0  0  0  0  0  0  0  0  0
   34.1999    1.3618   26.2877 C   0  0  0  0  0  0  0  0  0  0  0  0
   36.7042    2.2313   26.5009 H   0  0  0  0  0  0  0  0  0  0  0  0
   31.8879   -2.5686   25.5394 C   0  0  0  0  0  0  0  0  0  0  0  0
   33.0172   -3.4038   25.5140 C   0  0  0  0  0  0  0  0  0  0  0  0
   33.6925   -3.6454   24.3170 C   0  0  0  0  0  0  0  0  0  0  0  0
   33.2723   -3.0416   23.1294 C   0  0  0  0  0  0  0  0  0  0  0  0
   32.1438   -2.1999   23.1484 C   0  0  0  0  0  0  0  0  0  0  0  0
   31.4579   -1.9673   24.3441 C   0  0  0  0  0  0  0  0  0  0  0  0
   34.0041   -3.3003   21.9608 O   0  0  0  0  0  0  0  0  0  0  0  0
   34.0496   -2.4497   20.8136 C   0  0  0  0  0  0  0  0  0  0  0  0
   35.4722   -2.3704   20.2457 C   0  0  0  0  0  0  0  0  0  0  0  0
   35.6161   -1.1911   19.3612 N   0  0  0  0  0  0  0  0  0  0  0  0
   34.7287   -1.2391   18.1792 C   0  0  0  0  0  0  0  0  0  0  0  0
   35.2119   -2.2563   17.1371 C   0  0  0  0  0  0  0  0  0  0  0  0
   36.6454   -1.9373   16.7094 C   0  0  0  0  0  0  0  0  0  0  0  0
   37.5720   -1.8690   17.9249 C   0  0  0  0  0  0  0  0  0  0  0  0
   37.0203   -0.9015   18.9879 C   0  0  0  0  0  0  0  0  0  0  0  0
   30.9010   -0.7433   28.2979 H   0  0  0  0  0  0  0  0  0  0  0  0
   27.3994    0.9981   27.0655 H   0  0  0  0  0  0  0  0  0  0  0  0
   25.4476   -2.6579   27.8058 H   0  0  0  0  0  0  0  0  0  0  0  0
   27.5118   -3.8519   27.3651 H   0  0  0  0  0  0  0  0  0  0  0  0
   31.7185   -2.8002   27.6280 H   0  0  0  0  0  0  0  0  0  0  0  0
   35.6226   -0.3762   28.7812 H   0  0  0  0  0  0  0  0  0  0  0  0
   33.4120   -1.3676   28.8528 H   0  0  0  0  0  0  0  0  0  0  0  0
   32.2130    1.0881   25.6384 H   0  0  0  0  0  0  0  0  0  0  0  0
   34.4069    2.1145   25.6126 H   0  0  0  0  0  0  0  0  0  0  0  0
   33.3499   -3.8420   26.3871 H   0  0  0  0  0  0  0  0  0  0  0  0
   34.5096   -4.2757   24.3090 H   0  0  0  0  0  0  0  0  0  0  0  0
   31.8216   -1.7527   22.2759 H   0  0  0  0  0  0  0  0  0  0  0  0
   30.6307   -1.3503   24.3491 H   0  0  0  0  0  0  0  0  0  0  0  0
   33.7288   -1.4678   21.0928 H   0  0  0  0  0  0  0  0  0  0  0  0
   33.4042   -2.8548   20.0624 H   0  0  0  0  0  0  0  0  0  0  0  0
   35.6765   -3.2580   19.6842 H   0  0  0  0  0  0  0  0  0  0  0  0
   36.1629   -2.2785   21.0577 H   0  0  0  0  0  0  0  0  0  0  0  0
   34.7017   -0.2692   17.7282 H   0  0  0  0  0  0  0  0  0  0  0  0
   33.7564   -1.5407   18.5086 H   0  0  0  0  0  0  0  0  0  0  0  0
   34.5710   -2.2165   16.2812 H   0  0  0  0  0  0  0  0  0  0  0  0
   35.1868   -3.2352   17.5683 H   0  0  0  0  0  0  0  0  0  0  0  0
   36.6592   -0.9942   16.2042 H   0  0  0  0  0  0  0  0  0  0  0  0
   36.9900   -2.7133   16.0583 H   0  0  0  0  0  0  0  0  0  0  0  0
   38.5368   -1.5296   17.6104 H   0  0  0  0  0  0  0  0  0  0  0  0
   37.6396   -2.8458   18.3564 H   0  0  0  0  0  0  0  0  0  0  0  0
   37.0718    0.0950   18.6015 H   0  0  0  0  0  0  0  0  0  0  0  0
   37.6165   -1.0198   19.8685 H   0  0  0  0  0  0  0  0  0  0  0  0
  1  2  1  0  0  0  0
  1 36  1  1  0  0  0
  2  3  1  0  0  0  0
  3  4  2  0  0  0  0
  4  5  1  0  0  0  0
  4 37  1  0  0  0  0
  5  6  1  0  0  0  0
  5  7  2  0  0  0  0
  6 12  1  0  0  0  0
  7  8  1  0  0  0  0
  7 38  1  0  0  0  0
  8  9  2  0  0  0  0
  8 39  1  0  0  0  0
  9 10  1  0  0  0  0
  9  3  1  0  0  0  0
 10 11  1  0  0  0  0
 11 21  1  0  0  0  0
 11  1  1  0  0  0  0
 11 40  1  1  0  0  0
 13 14  1  0  0  0  0
 13 20  1  0  0  0  0
 14 15  2  0  0  0  0
 15 16  1  0  0  0  0
 15 41  1  0  0  0  0
 16 17  2  0  0  0  0
 16 42  1  0  0  0  0
 17  1  1  0  0  0  0
 17 18  1  0  0  0  0
 18 19  2  0  0  0  0
 18 43  1  0  0  0  0
 19 14  1  0  0  0  0
 19 44  1  0  0  0  0
 21 22  2  0  0  0  0
 22 23  1  0  0  0  0
 22 45  1  0  0  0  0
 23 24  2  0  0  0  0
 23 46  1  0  0  0  0
 24 27  1  0  0  0  0
 24 25  1  0  0  0  0
 25 26  2  0  0  0  0
 25 47  1  0  0  0  0
 26 21  1  0  0  0  0
 26 48  1  0  0  0  0
 27 28  1  0  0  0  0
 28 29  1  0  0  0  0
 28 49  1  0  0  0  0
 28 50  1  0  0  0  0
 29 30  1  0  0  0  0
 29 51  1  0  0  0  0
 29 52  1  0  0  0  0
 30 31  1  0  0  0  0
 31 32  1  0  0  0  0
 31 53  1  0  0  0  0
 31 54  1  0  0  0  0
 32 33  1  0  0  0  0
 32 55  1  0  0  0  0
 32 56  1  0  0  0  0
 33 34  1  0  0  0  0
 33 57  1  0  0  0  0
 33 58  1  0  0  0  0
 34 35  1  0  0  0  0
 34 59  1  0  0  0  0
 34 60  1  0  0  0  0
 35 30  1  0  0  0  0
 35 61  1  0  0  0  0
 35 62  1  0  0  0  0
M  END
>  <minimizedAffinity>
-10.53452

$$$$
CHEMBL184679
 OpenBabel01042214213D

 59 63  0  0  0  0  0  0  0  0999 V2000
   31.2184   -0.5760   27.7016 C   0  0  1  0  0  0  0  0  0  0  0  0
   30.0426    0.3446   26.6517 S   0  0  0  0  0  0  0  0  0  0  0  0
   28.6219   -0.6188   27.1740 C   0  0  0  0  0  0  0  0  0  0  0  0
   27.3854    0.0250   27.3074 C   0  0  0  0  0  0  0  0  0  0  0  0
   26.2377   -0.7070   27.6261 C   0  0  0  0  0  0  0  0  0  0  0  0
   25.0134   -0.0523   27.7402 O   0  0  0  0  0  0  0  0  0  0  0  0
   26.3283   -2.0909   27.8198 C   0  0  0  0  0  0  0  0  0  0  0  0
   27.5642   -2.7340   27.7136 C   0  0  0  0  0  0  0  0  0  0  0  0
   28.7204   -2.0049   27.4123 C   0  0  0  0  0  0  0  0  0  0  0  0
   29.9510   -2.6803   27.4112 O   0  0  0  0  0  0  0  0  0  0  0  0
   31.2437   -2.0717   27.2987 C   0  0  1  0  0  0  0  0  0  0  0  0
   24.1621   -0.5567   27.9555 H   0  0  0  0  0  0  0  0  0  0  0  0
   36.5211    1.5872   27.6172 O   0  0  0  0  0  0  0  0  0  0  0  0
   35.2241    1.0793   27.6284 C   0  0  0  0  0  0  0  0  0  0  0  0
   34.8239    0.2300   28.6638 C   0  0  0  0  0  0  0  0  0  0  0  0
   33.5260   -0.2888   28.6874 C   0  0  0  0  0  0  0  0  0  0  0  0
   32.6036    0.0460   27.6802 C   0  0  0  0  0  0  0  0  0  0  0  0
   33.0210    0.8917   26.6322 C   0  0  0  0  0  0  0  0  0  0  0  0
   34.3197    1.4073   26.6111 C   0  0  0  0  0  0  0  0  0  0  0  0
   36.8418    2.2044   26.8800 H   0  0  0  0  0  0  0  0  0  0  0  0
   31.8230   -2.3213   25.9177 C   0  0  0  0  0  0  0  0  0  0  0  0
   32.9431   -3.1581   25.7716 C   0  0  0  0  0  0  0  0  0  0  0  0
   33.5177   -3.3652   24.5151 C   0  0  0  0  0  0  0  0  0  0  0  0
   32.9786   -2.7385   23.3767 C   0  0  0  0  0  0  0  0  0  0  0  0
   31.8593   -1.9119   23.5193 C   0  0  0  0  0  0  0  0  0  0  0  0
   31.2839   -1.7035   24.7753 C   0  0  0  0  0  0  0  0  0  0  0  0
   33.5221   -2.9089   22.0954 O   0  0  0  0  0  0  0  0  0  0  0  0
   34.7339   -3.6081   21.8206 C   0  0  0  0  0  0  0  0  0  0  0  0
   35.6067   -2.7810   20.8769 C   0  0  0  0  0  0  0  0  0  0  0  0
   36.4657   -3.6501   20.0480 N   0  0  0  0  0  0  0  0  0  0  0  0
   36.5252   -5.0317   20.5411 C   0  0  0  0  0  0  0  0  0  0  0  0
   37.8752   -5.5967   20.1202 C   0  0  0  0  0  0  0  0  0  0  0  0
   38.7165   -4.3923   19.7246 C   0  0  1  0  0  0  0  0  0  0  0  0
   38.9953   -4.4293   18.3670 F   0  0  0  0  0  0  0  0  0  0  0  0
   37.8536   -3.1832   20.0466 C   0  0  0  0  0  0  0  0  0  0  0  0
   30.8792   -0.5145   28.7146 H   0  0  0  0  0  0  0  0  0  0  0  0
   27.3210    1.0457   27.1696 H   0  0  0  0  0  0  0  0  0  0  0  0
   25.4809   -2.6367   28.0413 H   0  0  0  0  0  0  0  0  0  0  0  0
   27.6250   -3.7540   27.8584 H   0  0  0  0  0  0  0  0  0  0  0  0
   31.9043   -2.5350   28.0015 H   0  0  0  0  0  0  0  0  0  0  0  0
   35.4891   -0.0150   29.4138 H   0  0  0  0  0  0  0  0  0  0  0  0
   33.2424   -0.9230   29.4506 H   0  0  0  0  0  0  0  0  0  0  0  0
   32.3624    1.1318   25.8748 H   0  0  0  0  0  0  0  0  0  0  0  0
   34.6130    2.0316   25.8435 H   0  0  0  0  0  0  0  0  0  0  0  0
   33.3447   -3.6238   26.6003 H   0  0  0  0  0  0  0  0  0  0  0  0
   34.3410   -3.9804   24.4216 H   0  0  0  0  0  0  0  0  0  0  0  0
   31.4547   -1.4516   22.6890 H   0  0  0  0  0  0  0  0  0  0  0  0
   30.4575   -1.0919   24.8653 H   0  0  0  0  0  0  0  0  0  0  0  0
   34.5058   -4.5474   21.3617 H   0  0  0  0  0  0  0  0  0  0  0  0
   35.2620   -3.7730   22.7365 H   0  0  0  0  0  0  0  0  0  0  0  0
   36.2256   -2.1278   21.4559 H   0  0  0  0  0  0  0  0  0  0  0  0
   34.9677   -2.2178   20.2293 H   0  0  0  0  0  0  0  0  0  0  0  0
   35.7345   -5.6099   20.1106 H   0  0  0  0  0  0  0  0  0  0  0  0
   36.4130   -5.0628   21.6048 H   0  0  0  0  0  0  0  0  0  0  0  0
   37.7596   -6.2609   19.2893 H   0  0  0  0  0  0  0  0  0  0  0  0
   38.3327   -6.1582   20.9078 H   0  0  0  0  0  0  0  0  0  0  0  0
   39.6532   -4.3691   20.2414 H   0  0  0  0  0  0  0  0  0  0  0  0
   37.9876   -2.4252   19.3034 H   0  0  0  0  0  0  0  0  0  0  0  0
   38.1197   -2.7593   20.9923 H   0  0  0  0  0  0  0  0  0  0  0  0
  1  2  1  0  0  0  0
  1 36  1  1  0  0  0
  2  3  1  0  0  0  0
  3  4  2  0  0  0  0
  4  5  1  0  0  0  0
  4 37  1  0  0  0  0
  5  6  1  0  0  0  0
  5  7  2  0  0  0  0
  6 12  1  0  0  0  0
  7  8  1  0  0  0  0
  7 38  1  0  0  0  0
  8  9  2  0  0  0  0
  8 39  1  0  0  0  0
  9 10  1  0  0  0  0
  9  3  1  0  0  0  0
 10 11  1  0  0  0  0
 11 21  1  0  0  0  0
 11  1  1  0  0  0  0
 11 40  1  1  0  0  0
 13 14  1  0  0  0  0
 13 20  1  0  0  0  0
 14 15  2  0  0  0  0
 15 16  1  0  0  0  0
 15 41  1  0  0  0  0
 16 17  2  0  0  0  0
 16 42  1  0  0  0  0
 17  1  1  0  0  0  0
 17 18  1  0  0  0  0
 18 19  2  0  0  0  0
 18 43  1  0  0  0  0
 19 14  1  0  0  0  0
 19 44  1  0  0  0  0
 21 22  2  0  0  0  0
 22 23  1  0  0  0  0
 22 45  1  0  0  0  0
 23 24  2  0  0  0  0
 23 46  1  0  0  0  0
 24 27  1  0  0  0  0
 24 25  1  0  0  0  0
 25 26  2  0  0  0  0
 25 47  1  0  0  0  0
 26 21  1  0  0  0  0
 26 48  1  0  0  0  0
 27 28  1  0  0  0  0
 28 29  1  0  0  0  0
 28 49  1  0  0  0  0
 28 50  1  0  0  0  0
 29 30  1  0  0  0  0
 29 51  1  0  0  0  0
 29 52  1  0  0  0  0
 30 31  1  0  0  0  0
 31 32  1  0  0  0  0
 31 53  1  0  0  0  0
 31 54  1  0  0  0  0
 32 33  1  0  0  0  0
 32 55  1  0  0  0  0
 32 56  1  0  0  0  0
 33 34  1  0  0  0  0
 33 35  1  0  0  0  0
 33 57  1  1  0  0  0
 35 30  1  0  0  0  0
 35 58  1  0  0  0  0
 35 59  1  0  0  0  0
M  END
>  <minimizedAffinity>
-10.55528

$$$$
CHEMBL304552
 OpenBabel01042214213D

 62 66  0  0  0  0  0  0  0  0999 V2000
   31.2957   -0.7608   27.4665 C   0  0  1  0  0  0  0  0  0  0  0  0
   30.1293    0.2289   26.4706 S   0  0  0  0  0  0  0  0  0  0  0  0
   28.6982   -0.7123   26.9992 C   0  0  0  0  0  0  0  0  0  0  0  0
   27.4898   -0.0429   27.2210 C   0  0  0  0  0  0  0  0  0  0  0  0
   26.3274   -0.7648   27.5248 C   0  0  0  0  0  0  0  0  0  0  0  0
   25.1139   -0.1065   27.7208 O   0  0  0  0  0  0  0  0  0  0  0  0
   26.3815   -2.1597   27.6169 C   0  0  0  0  0  0  0  0  0  0  0  0
   27.5934   -2.8305   27.4256 C   0  0  0  0  0  0  0  0  0  0  0  0
   28.7621   -2.1131   27.1421 C   0  0  0  0  0  0  0  0  0  0  0  0
   29.9727   -2.8183   27.0582 O   0  0  0  0  0  0  0  0  0  0  0  0
   31.2832   -2.2394   27.0016 C   0  0  1  0  0  0  0  0  0  0  0  0
   25.0330    0.8981   27.6106 H   0  0  0  0  0  0  0  0  0  0  0  0
   36.5232    1.5830   27.4245 O   0  0  0  0  0  0  0  0  0  0  0  0
   35.2530    1.0133   27.4309 C   0  0  0  0  0  0  0  0  0  0  0  0
   34.2985    1.3833   26.4728 C   0  0  0  0  0  0  0  0  0  0  0  0
   33.0266    0.8025   26.4884 C   0  0  0  0  0  0  0  0  0  0  0  0
   32.6944   -0.1677   27.4531 C   0  0  0  0  0  0  0  0  0  0  0  0
   33.6556   -0.5147   28.4254 C   0  0  0  0  0  0  0  0  0  0  0  0
   34.9271    0.0668   28.4064 C   0  0  0  0  0  0  0  0  0  0  0  0
   36.7849    2.2752   26.7368 H   0  0  0  0  0  0  0  0  0  0  0  0
   31.8837   -2.4523   25.6240 C   0  0  0  0  0  0  0  0  0  0  0  0
   32.9764   -3.3235   25.4646 C   0  0  0  0  0  0  0  0  0  0  0  0
   33.5588   -3.5102   24.2087 C   0  0  0  0  0  0  0  0  0  0  0  0
   33.0524   -2.8304   23.0817 C   0  0  0  0  0  0  0  0  0  0  0  0
   31.9661   -1.9611   23.2410 C   0  0  0  0  0  0  0  0  0  0  0  0
   31.3824   -1.7748   24.4968 C   0  0  0  0  0  0  0  0  0  0  0  0
   33.5956   -2.9794   21.7940 O   0  0  0  0  0  0  0  0  0  0  0  0
   34.6752   -3.8461   21.4434 C   0  0  0  0  0  0  0  0  0  0  0  0
   35.9097   -3.0376   21.0330 C   0  0  0  0  0  0  0  0  0  0  0  0
   36.6749   -3.7651   19.9946 N   0  0  0  0  0  0  0  0  0  0  0  0
   35.8051   -4.1465   18.8621 C   0  0  0  0  0  0  0  0  0  0  0  0
   36.5601   -5.0103   17.8313 C   0  0  0  0  0  0  0  0  0  0  0  0
   38.0656   -5.0757   18.1081 C   0  0  0  0  0  0  0  0  0  0  0  0
   38.6233   -3.6834   18.4189 C   0  0  0  0  0  0  0  0  0  0  0  0
   37.8132   -2.9538   19.5135 C   0  0  0  0  0  0  0  0  0  0  0  0
   30.9695   -0.7353   28.4853 H   0  0  0  0  0  0  0  0  0  0  0  0
   27.4542    0.9867   27.1607 H   0  0  0  0  0  0  0  0  0  0  0  0
   25.5246   -2.6951   27.8266 H   0  0  0  0  0  0  0  0  0  0  0  0
   27.6267   -3.8597   27.4937 H   0  0  0  0  0  0  0  0  0  0  0  0
   31.9132   -2.7454   27.7030 H   0  0  0  0  0  0  0  0  0  0  0  0
   34.5351    2.0857   25.7547 H   0  0  0  0  0  0  0  0  0  0  0  0
   32.3254    1.0874   25.7868 H   0  0  0  0  0  0  0  0  0  0  0  0
   33.4185   -1.2033   29.1566 H   0  0  0  0  0  0  0  0  0  0  0  0
   35.6271   -0.2037   29.1148 H   0  0  0  0  0  0  0  0  0  0  0  0
   33.3511   -3.8291   26.2825 H   0  0  0  0  0  0  0  0  0  0  0  0
   34.3632   -4.1484   24.1052 H   0  0  0  0  0  0  0  0  0  0  0  0
   31.5933   -1.4535   22.4235 H   0  0  0  0  0  0  0  0  0  0  0  0
   30.5782   -1.1361   24.5985 H   0  0  0  0  0  0  0  0  0  0  0  0
   34.3750   -4.4675   20.6257 H   0  0  0  0  0  0  0  0  0  0  0  0
   34.9246   -4.4452   22.2942 H   0  0  0  0  0  0  0  0  0  0  0  0
   36.5329   -2.8847   21.8893 H   0  0  0  0  0  0  0  0  0  0  0  0
   35.5942   -2.0945   20.6380 H   0  0  0  0  0  0  0  0  0  0  0  0
   35.4537   -3.2583   18.3798 H   0  0  0  0  0  0  0  0  0  0  0  0
   34.9887   -4.7216   19.2464 H   0  0  0  0  0  0  0  0  0  0  0  0
   36.4084   -4.5932   16.8577 H   0  0  0  0  0  0  0  0  0  0  0  0
   36.1745   -6.0062   17.8981 H   0  0  0  0  0  0  0  0  0  0  0  0
   38.5638   -5.4687   17.2465 H   0  0  0  0  0  0  0  0  0  0  0  0
   38.2311   -5.7080   18.9553 H   0  0  0  0  0  0  0  0  0  0  0  0
   38.5988   -3.0962   17.5247 H   0  0  0  0  0  0  0  0  0  0  0  0
   39.6227   -3.8063   18.7808 H   0  0  0  0  0  0  0  0  0  0  0  0
   37.4376   -2.0362   19.1112 H   0  0  0  0  0  0  0  0  0  0  0  0
   38.4652   -2.7752   20.3429 H   0  0  0  0  0  0  0  0  0  0  0  0
  1  2  1  0  0  0  0
  1 36  1  1  0  0  0
  2  3  1  0  0  0  0
  3  4  2  0  0  0  0
  4  5  1  0  0  0  0
  4 37  1  0  0  0  0
  5  6  1  0  0  0  0
  5  7  2  0  0  0  0
  6 12  1  0  0  0  0
  7  8  1  0  0  0  0
  7 38  1  0  0  0  0
  8  9  2  0  0  0  0
  8 39  1  0  0  0  0
  9 10  1  0  0  0  0
  9  3  1  0  0  0  0
 10 11  1  0  0  0  0
 11 21  1  0  0  0  0
 11  1  1  0  0  0  0
 11 40  1  1  0  0  0
 13 14  1  0  0  0  0
 13 20  1  0  0  0  0
 14 15  2  0  0  0  0
 15 16  1  0  0  0  0
 15 41  1  0  0  0  0
 16 17  2  0  0  0  0
 16 42  1  0  0  0  0
 17  1  1  0  0  0  0
 17 18  1  0  0  0  0
 18 19  2  0  0  0  0
 18 43  1  0  0  0  0
 19 14  1  0  0  0  0
 19 44  1  0  0  0  0
 21 22  2  0  0  0  0
 22 23  1  0  0  0  0
 22 45  1  0  0  0  0
 23 24  2  0  0  0  0
 23 46  1  0  0  0  0
 24 27  1  0  0  0  0
 24 25  1  0  0  0  0
 25 26  2  0  0  0  0
 25 47  1  0  0  0  0
 26 21  1  0  0  0  0
 26 48  1  0  0  0  0
 27 28  1  0  0  0  0
 28 29  1  0  0  0  0
 28 49  1  0  0  0  0
 28 50  1  0  0  0  0
 29 30  1  0  0  0  0
 29 51  1  0  0  0  0
 29 52  1  0  0  0  0
 30 31  1  0  0  0  0
 31 32  1  0  0  0  0
 31 53  1  0  0  0  0
 31 54  1  0  0  0  0
 32 33  1  0  0  0  0
 32 55  1  0  0  0  0
 32 56  1  0  0  0  0
 33 34  1  0  0  0  0
 33 57  1  0  0  0  0
 33 58  1  0  0  0  0
 34 35  1  0  0  0  0
 34 59  1  0  0  0  0
 34 60  1  0  0  0  0
 35 30  1  0  0  0  0
 35 61  1  0  0  0  0
 35 62  1  0  0  0  0
M  END
>  <minimizedAffinity>
-10.57395

$$$$
CHEMBL184679
 OpenBabel01042214213D

 59 63  0  0  0  0  0  0  0  0999 V2000
   31.2272   -0.6100   27.7779 C   0  0  1  0  0  0  0  0  0  0  0  0
   30.0642    0.3661   26.7645 S   0  0  0  0  0  0  0  0  0  0  0  0
   28.6343   -0.6123   27.2310 C   0  0  0  0  0  0  0  0  0  0  0  0
   27.4005    0.0319   27.3861 C   0  0  0  0  0  0  0  0  0  0  0  0
   26.2465   -0.7074   27.6619 C   0  0  0  0  0  0  0  0  0  0  0  0
   25.0251   -0.0515   27.7983 O   0  0  0  0  0  0  0  0  0  0  0  0
   26.3278   -2.0994   27.7907 C   0  0  0  0  0  0  0  0  0  0  0  0
   27.5608   -2.7442   27.6628 C   0  0  0  0  0  0  0  0  0  0  0  0
   28.7232   -2.0087   27.4042 C   0  0  0  0  0  0  0  0  0  0  0  0
   29.9499   -2.6907   27.3798 O   0  0  0  0  0  0  0  0  0  0  0  0
   31.2469   -2.0852   27.3051 C   0  0  1  0  0  0  0  0  0  0  0  0
   24.1695   -0.5604   27.9836 H   0  0  0  0  0  0  0  0  0  0  0  0
   36.5425    1.5230   27.8304 O   0  0  0  0  0  0  0  0  0  0  0  0
   35.2425    1.0229   27.8093 C   0  0  0  0  0  0  0  0  0  0  0  0
   34.8340    0.1194   28.7943 C   0  0  0  0  0  0  0  0  0  0  0  0
   33.5331   -0.3921   28.7850 C   0  0  0  0  0  0  0  0  0  0  0  0
   32.6160    0.0040   27.7954 C   0  0  0  0  0  0  0  0  0  0  0  0
   33.0417    0.9046   26.7977 C   0  0  0  0  0  0  0  0  0  0  0  0
   34.3434    1.4128   26.8093 C   0  0  0  0  0  0  0  0  0  0  0  0
   36.8691    2.1786   27.1299 H   0  0  0  0  0  0  0  0  0  0  0  0
   31.8346   -2.2729   25.9179 C   0  0  0  0  0  0  0  0  0  0  0  0
   31.2891   -1.5720   24.8281 C   0  0  0  0  0  0  0  0  0  0  0  0
   31.7869   -1.7644   23.5370 C   0  0  0  0  0  0  0  0  0  0  0  0
   32.8456   -2.6632   23.3118 C   0  0  0  0  0  0  0  0  0  0  0  0
   33.3946   -3.3555   24.3960 C   0  0  0  0  0  0  0  0  0  0  0  0
   32.8975   -3.1644   25.6878 C   0  0  0  0  0  0  0  0  0  0  0  0
   33.3761   -2.8963   22.0349 O   0  0  0  0  0  0  0  0  0  0  0  0
   34.6327   -3.5224   21.7864 C   0  0  0  0  0  0  0  0  0  0  0  0
   34.6419   -4.1266   20.3824 C   0  0  0  0  0  0  0  0  0  0  0  0
   35.2404   -3.1947   19.4060 N   0  0  0  0  0  0  0  0  0  0  0  0
   36.0461   -2.1436   20.0397 C   0  0  0  0  0  0  0  0  0  0  0  0
   35.9983   -0.9308   19.1200 C   0  0  0  0  0  0  0  0  0  0  0  0
   34.8455   -1.1903   18.1617 C   0  0  1  0  0  0  0  0  0  0  0  0
   35.3244   -1.3516   16.8707 F   0  0  0  0  0  0  0  0  0  0  0  0
   34.2100   -2.4829   18.6470 C   0  0  0  0  0  0  0  0  0  0  0  0
   30.8811   -0.5943   28.7903 H   0  0  0  0  0  0  0  0  0  0  0  0
   27.3429    1.0584   27.2963 H   0  0  0  0  0  0  0  0  0  0  0  0
   25.4757   -2.6499   27.9804 H   0  0  0  0  0  0  0  0  0  0  0  0
   27.6148   -3.7702   27.7597 H   0  0  0  0  0  0  0  0  0  0  0  0
   31.8998   -2.5850   27.9898 H   0  0  0  0  0  0  0  0  0  0  0  0
   35.4953   -0.1712   29.5313 H   0  0  0  0  0  0  0  0  0  0  0  0
   33.2433   -1.0662   29.5107 H   0  0  0  0  0  0  0  0  0  0  0  0
   32.3870    1.1907   26.0531 H   0  0  0  0  0  0  0  0  0  0  0  0
   34.6428    2.0774   26.0787 H   0  0  0  0  0  0  0  0  0  0  0  0
   30.5136   -0.9091   24.9833 H   0  0  0  0  0  0  0  0  0  0  0  0
   31.3764   -1.2451   22.7453 H   0  0  0  0  0  0  0  0  0  0  0  0
   34.1741   -4.0136   24.2404 H   0  0  0  0  0  0  0  0  0  0  0  0
   33.3133   -3.6811   26.4785 H   0  0  0  0  0  0  0  0  0  0  0  0
   34.7924   -4.2968   22.5073 H   0  0  0  0  0  0  0  0  0  0  0  0
   35.4118   -2.7929   21.8620 H   0  0  0  0  0  0  0  0  0  0  0  0
   33.6360   -4.3422   20.0883 H   0  0  0  0  0  0  0  0  0  0  0  0
   35.2284   -5.0213   20.4015 H   0  0  0  0  0  0  0  0  0  0  0  0
   37.0564   -2.4758   20.1576 H   0  0  0  0  0  0  0  0  0  0  0  0
   35.6645   -1.9025   21.0098 H   0  0  0  0  0  0  0  0  0  0  0  0
   36.9176   -0.8341   18.5811 H   0  0  0  0  0  0  0  0  0  0  0  0
   35.8607   -0.0226   19.6687 H   0  0  0  0  0  0  0  0  0  0  0  0
   34.1477   -0.3793   18.1434 H   0  0  0  0  0  0  0  0  0  0  0  0
   33.8909   -3.0733   17.8137 H   0  0  0  0  0  0  0  0  0  0  0  0
   33.3499   -2.2871   19.2526 H   0  0  0  0  0  0  0  0  0  0  0  0
  1  2  1  0  0  0  0
  1 36  1  1  0  0  0
  2  3  1  0  0  0  0
  3  4  2  0  0  0  0
  4  5  1  0  0  0  0
  4 37  1  0  0  0  0
  5  6  1  0  0  0  0
  5  7  2  0  0  0  0
  6 12  1  0  0  0  0
  7  8  1  0  0  0  0
  7 38  1  0  0  0  0
  8  9  2  0  0  0  0
  8 39  1  0  0  0  0
  9 10  1  0  0  0  0
  9  3  1  0  0  0  0
 10 11  1  0  0  0  0
 11 21  1  0  0  0  0
 11  1  1  0  0  0  0
 11 40  1  1  0  0  0
 13 14  1  0  0  0  0
 13 20  1  0  0  0  0
 14 15  2  0  0  0  0
 15 16  1  0  0  0  0
 15 41  1  0  0  0  0
 16 17  2  0  0  0  0
 16 42  1  0  0  0  0
 17  1  1  0  0  0  0
 17 18  1  0  0  0  0
 18 19  2  0  0  0  0
 18 43  1  0  0  0  0
 19 14  1  0  0  0  0
 19 44  1  0  0  0  0
 21 22  2  0  0  0  0
 22 23  1  0  0  0  0
 22 45  1  0  0  0  0
 23 24  2  0  0  0  0
 23 46  1  0  0  0  0
 24 27  1  0  0  0  0
 24 25  1  0  0  0  0
 25 26  2  0  0  0  0
 25 47  1  0  0  0  0
 26 21  1  0  0  0  0
 26 48  1  0  0  0  0
 27 28  1  0  0  0  0
 28 29  1  0  0  0  0
 28 49  1  0  0  0  0
 28 50  1  0  0  0  0
 29 30  1  0  0  0  0
 29 51  1  0  0  0  0
 29 52  1  0  0  0  0
 30 31  1  0  0  0  0
 31 32  1  0  0  0  0
 31 53  1  0  0  0  0
 31 54  1  0  0  0  0
 32 33  1  0  0  0  0
 32 55  1  0  0  0  0
 32 56  1  0  0  0  0
 33 34  1  0  0  0  0
 33 35  1  0  0  0  0
 33 57  1  1  0  0  0
 35 30  1  0  0  0  0
 35 58  1  0  0  0  0
 35 59  1  0  0  0  0
M  END
>  <minimizedAffinity>
-10.71821

$$$$
CHEMBL304552
 OpenBabel01042214213D

 62 66  0  0  0  0  0  0  0  0999 V2000
   31.1417   -0.6535   27.3972 C   0  0  1  0  0  0  0  0  0  0  0  0
   29.9449    0.3234   26.4191 S   0  0  0  0  0  0  0  0  0  0  0  0
   28.5368   -0.6219   26.9928 C   0  0  0  0  0  0  0  0  0  0  0  0
   27.3300    0.0375   27.2653 C   0  0  0  0  0  0  0  0  0  0  0  0
   26.1849   -0.6998   27.6005 C   0  0  0  0  0  0  0  0  0  0  0  0
   24.9691   -0.0624   27.8398 O   0  0  0  0  0  0  0  0  0  0  0  0
   26.2554   -2.0931   27.6800 C   0  0  0  0  0  0  0  0  0  0  0  0
   27.4606   -2.7518   27.4211 C   0  0  0  0  0  0  0  0  0  0  0  0
   28.6114   -2.0225   27.0967 C   0  0  0  0  0  0  0  0  0  0  0  0
   29.8175   -2.7155   26.9111 O   0  0  0  0  0  0  0  0  0  0  0  0
   31.1338   -2.1433   26.9567 C   0  0  1  0  0  0  0  0  0  0  0  0
   24.8704    0.9454   27.7697 H   0  0  0  0  0  0  0  0  0  0  0  0
   36.4916    1.3824   27.1363 O   0  0  0  0  0  0  0  0  0  0  0  0
   35.1908    0.8900   27.2038 C   0  0  0  0  0  0  0  0  0  0  0  0
   34.2167    1.4002   26.3405 C   0  0  0  0  0  0  0  0  0  0  0  0
   32.9051    0.9220   26.4002 C   0  0  0  0  0  0  0  0  0  0  0  0
   32.5417   -0.0631   27.3473 C   0  0  0  0  0  0  0  0  0  0  0  0
   33.5346   -0.5800   28.1972 C   0  0  0  0  0  0  0  0  0  0  0  0
   34.8490   -0.1127   28.1225 C   0  0  0  0  0  0  0  0  0  0  0  0
   37.2235    1.0222   27.7400 H   0  0  0  0  0  0  0  0  0  0  0  0
   31.8419   -2.3857   25.6384 C   0  0  0  0  0  0  0  0  0  0  0  0
   31.3820   -1.7531   24.4714 C   0  0  0  0  0  0  0  0  0  0  0  0
   32.0100   -1.9831   23.2467 C   0  0  0  0  0  0  0  0  0  0  0  0
   33.0899   -2.8646   23.1562 C   0  0  0  0  0  0  0  0  0  0  0  0
   33.5533   -3.5054   24.3210 C   0  0  0  0  0  0  0  0  0  0  0  0
   32.9341   -3.2660   25.5512 C   0  0  0  0  0  0  0  0  0  0  0  0
   33.6666   -3.0771   21.8950 O   0  0  0  0  0  0  0  0  0  0  0  0
   33.2564   -4.0778   20.9612 C   0  0  0  0  0  0  0  0  0  0  0  0
   32.2494   -3.5083   19.9540 C   0  0  0  0  0  0  0  0  0  0  0  0
   32.9517   -2.9136   18.7934 N   0  0  0  0  0  0  0  0  0  0  0  0
   32.0304   -2.3593   17.7780 C   0  0  0  0  0  0  0  0  0  0  0  0
   31.3325   -3.4616   16.9705 C   0  0  0  0  0  0  0  0  0  0  0  0
   32.3689   -4.3687   16.3050 C   0  0  0  0  0  0  0  0  0  0  0  0
   33.3388   -4.9370   17.3428 C   0  0  0  0  0  0  0  0  0  0  0  0
   33.9627   -3.8138   18.1911 C   0  0  0  0  0  0  0  0  0  0  0  0
   30.8280   -0.6099   28.4192 H   0  0  0  0  0  0  0  0  0  0  0  0
   27.2841    1.0674   27.2192 H   0  0  0  0  0  0  0  0  0  0  0  0
   25.4151   -2.6373   27.9306 H   0  0  0  0  0  0  0  0  0  0  0  0
   27.5028   -3.7818   27.4693 H   0  0  0  0  0  0  0  0  0  0  0  0
   31.6867   -2.6417   27.7253 H   0  0  0  0  0  0  0  0  0  0  0  0
   34.4670    2.1320   25.6573 H   0  0  0  0  0  0  0  0  0  0  0  0
   32.1958    1.2908   25.7477 H   0  0  0  0  0  0  0  0  0  0  0  0
   33.2904   -1.3116   28.8829 H   0  0  0  0  0  0  0  0  0  0  0  0
   35.5710   -0.5069   28.7457 H   0  0  0  0  0  0  0  0  0  0  0  0
   30.5736   -1.1135   24.5202 H   0  0  0  0  0  0  0  0  0  0  0  0
   31.6737   -1.4977   22.4003 H   0  0  0  0  0  0  0  0  0  0  0  0
   34.3536   -4.1547   24.2664 H   0  0  0  0  0  0  0  0  0  0  0  0
   33.2810   -3.7385   26.4005 H   0  0  0  0  0  0  0  0  0  0  0  0
   32.8005   -4.8869   21.4927 H   0  0  0  0  0  0  0  0  0  0  0  0
   34.1179   -4.4195   20.4265 H   0  0  0  0  0  0  0  0  0  0  0  0
   31.6612   -2.7539   20.4333 H   0  0  0  0  0  0  0  0  0  0  0  0
   31.6219   -4.3026   19.6072 H   0  0  0  0  0  0  0  0  0  0  0  0
   32.5884   -1.7404   17.1068 H   0  0  0  0  0  0  0  0  0  0  0  0
   31.2768   -1.7967   18.2883 H   0  0  0  0  0  0  0  0  0  0  0  0
   30.7200   -3.0129   16.2166 H   0  0  0  0  0  0  0  0  0  0  0  0
   30.7293   -4.0484   17.6313 H   0  0  0  0  0  0  0  0  0  0  0  0
   32.9195   -3.8020   15.5834 H   0  0  0  0  0  0  0  0  0  0  0  0
   31.8595   -5.1811   15.8302 H   0  0  0  0  0  0  0  0  0  0  0  0
   34.1186   -5.4683   16.8384 H   0  0  0  0  0  0  0  0  0  0  0  0
   32.7966   -5.5923   17.9920 H   0  0  0  0  0  0  0  0  0  0  0  0
   34.6076   -3.2324   17.5658 H   0  0  0  0  0  0  0  0  0  0  0  0
   34.4967   -4.2779   18.9938 H   0  0  0  0  0  0  0  0  0  0  0  0
  1  2  1  0  0  0  0
  1 36  1  1  0  0  0
  2  3  1  0  0  0  0
  3  4  2  0  0  0  0
  4  5  1  0  0  0  0
  4 37  1  0  0  0  0
  5  6  1  0  0  0  0
  5  7  2  0  0  0  0
  6 12  1  0  0  0  0
  7  8  1  0  0  0  0
  7 38  1  0  0  0  0
  8  9  2  0  0  0  0
  8 39  1  0  0  0  0
  9 10  1  0  0  0  0
  9  3  1  0  0  0  0
 10 11  1  0  0  0  0
 11 21  1  0  0  0  0
 11  1  1  0  0  0  0
 11 40  1  1  0  0  0
 13 14  1  0  0  0  0
 13 20  1  0  0  0  0
 14 15  2  0  0  0  0
 15 16  1  0  0  0  0
 15 41  1  0  0  0  0
 16 17  2  0  0  0  0
 16 42  1  0  0  0  0
 17  1  1  0  0  0  0
 17 18  1  0  0  0  0
 18 19  2  0  0  0  0
 18 43  1  0  0  0  0
 19 14  1  0  0  0  0
 19 44  1  0  0  0  0
 21 22  2  0  0  0  0
 22 23  1  0  0  0  0
 22 45  1  0  0  0  0
 23 24  2  0  0  0  0
 23 46  1  0  0  0  0
 24 27  1  0  0  0  0
 24 25  1  0  0  0  0
 25 26  2  0  0  0  0
 25 47  1  0  0  0  0
 26 21  1  0  0  0  0
 26 48  1  0  0  0  0
 27 28  1  0  0  0  0
 28 29  1  0  0  0  0
 28 49  1  0  0  0  0
 28 50  1  0  0  0  0
 29 30  1  0  0  0  0
 29 51  1  0  0  0  0
 29 52  1  0  0  0  0
 30 31  1  0  0  0  0
 31 32  1  0  0  0  0
 31 53  1  0  0  0  0
 31 54  1  0  0  0  0
 32 33  1  0  0  0  0
 32 55  1  0  0  0  0
 32 56  1  0  0  0  0
 33 34  1  0  0  0  0
 33 57  1  0  0  0  0
 33 58  1  0  0  0  0
 34 35  1  0  0  0  0
 34 59  1  0  0  0  0
 34 60  1  0  0  0  0
 35 30  1  0  0  0  0
 35 61  1  0  0  0  0
 35 62  1  0  0  0  0
M  END
>  <minimizedAffinity>
-10.86568

$$$$
CHEMBL304552
 OpenBabel01042214213D

 62 66  0  0  0  0  0  0  0  0999 V2000
   31.1677   -0.6753   27.3590 C   0  0  1  0  0  0  0  0  0  0  0  0
   29.9648    0.3022   26.3890 S   0  0  0  0  0  0  0  0  0  0  0  0
   28.5615   -0.6501   26.9626 C   0  0  0  0  0  0  0  0  0  0  0  0
   27.3534    0.0041   27.2417 C   0  0  0  0  0  0  0  0  0  0  0  0
   26.2117   -0.7384   27.5770 C   0  0  0  0  0  0  0  0  0  0  0  0
   24.9946   -0.1059   27.8228 O   0  0  0  0  0  0  0  0  0  0  0  0
   26.2869   -2.1318   27.6499 C   0  0  0  0  0  0  0  0  0  0  0  0
   27.4934   -2.7854   27.3843 C   0  0  0  0  0  0  0  0  0  0  0  0
   28.6409   -2.0510   27.0598 C   0  0  0  0  0  0  0  0  0  0  0  0
   29.8486   -2.7392   26.8674 O   0  0  0  0  0  0  0  0  0  0  0  0
   31.1632   -2.1630   26.9117 C   0  0  1  0  0  0  0  0  0  0  0  0
   24.8924    0.9018   27.7577 H   0  0  0  0  0  0  0  0  0  0  0  0
   36.5113    1.3771   27.0972 O   0  0  0  0  0  0  0  0  0  0  0  0
   35.2119    0.8807   27.1649 C   0  0  0  0  0  0  0  0  0  0  0  0
   34.2429    1.3677   26.2826 C   0  0  0  0  0  0  0  0  0  0  0  0
   32.9328    0.8854   26.3421 C   0  0  0  0  0  0  0  0  0  0  0  0
   32.5657   -0.0801   27.3076 C   0  0  0  0  0  0  0  0  0  0  0  0
   33.5536   -0.5740   28.1768 C   0  0  0  0  0  0  0  0  0  0  0  0
   34.8666   -0.1030   28.1026 C   0  0  0  0  0  0  0  0  0  0  0  0
   37.2396    1.0333   27.7147 H   0  0  0  0  0  0  0  0  0  0  0  0
   31.8681   -2.3971   25.5902 C   0  0  0  0  0  0  0  0  0  0  0  0
   31.3690   -1.8060   24.4175 C   0  0  0  0  0  0  0  0  0  0  0  0
   31.9943   -2.0297   23.1903 C   0  0  0  0  0  0  0  0  0  0  0  0
   33.1112   -2.8642   23.1032 C   0  0  0  0  0  0  0  0  0  0  0  0
   33.6141   -3.4634   24.2738 C   0  0  0  0  0  0  0  0  0  0  0  0
   32.9972   -3.2298   25.5063 C   0  0  0  0  0  0  0  0  0  0  0  0
   33.6840   -3.0732   21.8397 O   0  0  0  0  0  0  0  0  0  0  0  0
   34.8770   -3.8190   21.5907 C   0  0  0  0  0  0  0  0  0  0  0  0
   35.9715   -2.9217   20.9993 C   0  0  0  0  0  0  0  0  0  0  0  0
   35.8092   -2.7987   19.5322 N   0  0  0  0  0  0  0  0  0  0  0  0
   37.0934   -2.8383   18.7999 C   0  0  0  0  0  0  0  0  0  0  0  0
   37.8898   -1.5370   18.9629 C   0  0  0  0  0  0  0  0  0  0  0  0
   37.0542   -0.3421   18.5007 C   0  0  0  0  0  0  0  0  0  0  0  0
   35.7152   -0.2980   19.2395 C   0  0  0  0  0  0  0  0  0  0  0  0
   34.9754   -1.6434   19.1257 C   0  0  0  0  0  0  0  0  0  0  0  0
   30.8570   -0.6374   28.3822 H   0  0  0  0  0  0  0  0  0  0  0  0
   27.3040    1.0341   27.2004 H   0  0  0  0  0  0  0  0  0  0  0  0
   25.4492   -2.6799   27.9006 H   0  0  0  0  0  0  0  0  0  0  0  0
   27.5390   -3.8155   27.4276 H   0  0  0  0  0  0  0  0  0  0  0  0
   31.7200   -2.6631   27.6764 H   0  0  0  0  0  0  0  0  0  0  0  0
   34.4959    2.0854   25.5855 H   0  0  0  0  0  0  0  0  0  0  0  0
   32.2274    1.2368   25.6758 H   0  0  0  0  0  0  0  0  0  0  0  0
   33.3066   -1.2913   28.8764 H   0  0  0  0  0  0  0  0  0  0  0  0
   35.5850   -0.4804   28.7402 H   0  0  0  0  0  0  0  0  0  0  0  0
   30.5336   -1.2018   24.4640 H   0  0  0  0  0  0  0  0  0  0  0  0
   31.6284   -1.5746   22.3394 H   0  0  0  0  0  0  0  0  0  0  0  0
   34.4417   -4.0777   24.2217 H   0  0  0  0  0  0  0  0  0  0  0  0
   33.3732   -3.6715   26.3598 H   0  0  0  0  0  0  0  0  0  0  0  0
   34.6595   -4.6072   20.9005 H   0  0  0  0  0  0  0  0  0  0  0  0
   35.2286   -4.2201   22.5182 H   0  0  0  0  0  0  0  0  0  0  0  0
   36.9293   -3.3485   21.2125 H   0  0  0  0  0  0  0  0  0  0  0  0
   35.8937   -1.9487   21.4375 H   0  0  0  0  0  0  0  0  0  0  0  0
   36.8933   -2.9927   17.7602 H   0  0  0  0  0  0  0  0  0  0  0  0
   37.6795   -3.6368   19.2046 H   0  0  0  0  0  0  0  0  0  0  0  0
   38.7817   -1.5929   18.3744 H   0  0  0  0  0  0  0  0  0  0  0  0
   38.1395   -1.4087   19.9954 H   0  0  0  0  0  0  0  0  0  0  0  0
   36.8724   -0.4266   17.4496 H   0  0  0  0  0  0  0  0  0  0  0  0
   37.5937    0.5570   18.7140 H   0  0  0  0  0  0  0  0  0  0  0  0
   35.1066    0.4726   18.8144 H   0  0  0  0  0  0  0  0  0  0  0  0
   35.9039   -0.1001   20.2740 H   0  0  0  0  0  0  0  0  0  0  0  0
   34.6738   -1.7817   18.1084 H   0  0  0  0  0  0  0  0  0  0  0  0
   34.1368   -1.6047   19.7892 H   0  0  0  0  0  0  0  0  0  0  0  0
  1  2  1  0  0  0  0
  1 36  1  1  0  0  0
  2  3  1  0  0  0  0
  3  4  2  0  0  0  0
  4  5  1  0  0  0  0
  4 37  1  0  0  0  0
  5  6  1  0  0  0  0
  5  7  2  0  0  0  0
  6 12  1  0  0  0  0
  7  8  1  0  0  0  0
  7 38  1  0  0  0  0
  8  9  2  0  0  0  0
  8 39  1  0  0  0  0
  9 10  1  0  0  0  0
  9  3  1  0  0  0  0
 10 11  1  0  0  0  0
 11 21  1  0  0  0  0
 11  1  1  0  0  0  0
 11 40  1  1  0  0  0
 13 14  1  0  0  0  0
 13 20  1  0  0  0  0
 14 15  2  0  0  0  0
 15 16  1  0  0  0  0
 15 41  1  0  0  0  0
 16 17  2  0  0  0  0
 16 42  1  0  0  0  0
 17  1  1  0  0  0  0
 17 18  1  0  0  0  0
 18 19  2  0  0  0  0
 18 43  1  0  0  0  0
 19 14  1  0  0  0  0
 19 44  1  0  0  0  0
 21 22  2  0  0  0  0
 22 23  1  0  0  0  0
 22 45  1  0  0  0  0
 23 24  2  0  0  0  0
 23 46  1  0  0  0  0
 24 27  1  0  0  0  0
 24 25  1  0  0  0  0
 25 26  2  0  0  0  0
 25 47  1  0  0  0  0
 26 21  1  0  0  0  0
 26 48  1  0  0  0  0
 27 28  1  0  0  0  0
 28 29  1  0  0  0  0
 28 49  1  0  0  0  0
 28 50  1  0  0  0  0
 29 30  1  0  0  0  0
 29 51  1  0  0  0  0
 29 52  1  0  0  0  0
 30 31  1  0  0  0  0
 31 32  1  0  0  0  0
 31 53  1  0  0  0  0
 31 54  1  0  0  0  0
 32 33  1  0  0  0  0
 32 55  1  0  0  0  0
 32 56  1  0  0  0  0
 33 34  1  0  0  0  0
 33 57  1  0  0  0  0
 33 58  1  0  0  0  0
 34 35  1  0  0  0  0
 34 59  1  0  0  0  0
 34 60  1  0  0  0  0
 35 30  1  0  0  0  0
 35 61  1  0  0  0  0
 35 62  1  0  0  0  0
M  END
>  <minimizedAffinity>
-10.93816

$$$$
CHEMBL304552
 OpenBabel01042214213D

 62 66  0  0  0  0  0  0  0  0999 V2000
   31.2877   -0.7107   27.6040 C   0  0  1  0  0  0  0  0  0  0  0  0
   30.1475    0.3001   26.5989 S   0  0  0  0  0  0  0  0  0  0  0  0
   28.7000   -0.6377   27.0877 C   0  0  0  0  0  0  0  0  0  0  0  0
   27.4923    0.0373   27.2951 C   0  0  0  0  0  0  0  0  0  0  0  0
   26.3193   -0.6802   27.5672 C   0  0  0  0  0  0  0  0  0  0  0  0
   25.1068   -0.0159   27.7485 O   0  0  0  0  0  0  0  0  0  0  0  0
   26.3621   -2.0765   27.6420 C   0  0  0  0  0  0  0  0  0  0  0  0
   27.5728   -2.7533   27.4652 C   0  0  0  0  0  0  0  0  0  0  0  0
   28.7516   -2.0407   27.2135 C   0  0  0  0  0  0  0  0  0  0  0  0
   29.9587   -2.7533   27.1435 O   0  0  0  0  0  0  0  0  0  0  0  0
   31.2741   -2.1830   27.1195 C   0  0  1  0  0  0  0  0  0  0  0  0
   25.0349    0.9906   27.6500 H   0  0  0  0  0  0  0  0  0  0  0  0
   36.5309    1.5967   27.6865 O   0  0  0  0  0  0  0  0  0  0  0  0
   35.2571    1.0357   27.6626 C   0  0  0  0  0  0  0  0  0  0  0  0
   34.3437    1.3781   26.6554 C   0  0  0  0  0  0  0  0  0  0  0  0
   33.0676    0.8064   26.6411 C   0  0  0  0  0  0  0  0  0  0  0  0
   32.6905   -0.1274   27.6250 C   0  0  0  0  0  0  0  0  0  0  0  0
   33.6102   -0.4464   28.6458 C   0  0  0  0  0  0  0  0  0  0  0  0
   34.8859    0.1259   28.6567 C   0  0  0  0  0  0  0  0  0  0  0  0
   36.8247    2.2628   26.9860 H   0  0  0  0  0  0  0  0  0  0  0  0
   31.8994   -2.3823   25.7510 C   0  0  0  0  0  0  0  0  0  0  0  0
   31.3580   -1.7239   24.6323 C   0  0  0  0  0  0  0  0  0  0  0  0
   31.9040   -1.9174   23.3611 C   0  0  0  0  0  0  0  0  0  0  0  0
   33.0116   -2.7724   23.1853 C   0  0  0  0  0  0  0  0  0  0  0  0
   33.5489   -3.4298   24.2988 C   0  0  0  0  0  0  0  0  0  0  0  0
   33.0040   -3.2359   25.5708 C   0  0  0  0  0  0  0  0  0  0  0  0
   33.6038   -3.0046   21.9320 O   0  0  0  0  0  0  0  0  0  0  0  0
   34.8036   -3.7455   21.7050 C   0  0  0  0  0  0  0  0  0  0  0  0
   35.8400   -2.8895   20.9707 C   0  0  0  0  0  0  0  0  0  0  0  0
   35.2509   -2.3205   19.7369 N   0  0  0  0  0  0  0  0  0  0  0  0
   35.9527   -1.0839   19.3335 C   0  0  0  0  0  0  0  0  0  0  0  0
   35.2735   -0.4143   18.1215 C   0  0  0  0  0  0  0  0  0  0  0  0
   34.1880   -1.2951   17.4942 C   0  0  0  0  0  0  0  0  0  0  0  0
   34.6826   -2.7356   17.3305 C   0  0  0  0  0  0  0  0  0  0  0  0
   35.2801   -3.3065   18.6358 C   0  0  0  0  0  0  0  0  0  0  0  0
   30.9422   -0.6962   28.6166 H   0  0  0  0  0  0  0  0  0  0  0  0
   27.4649    1.0678   27.2476 H   0  0  0  0  0  0  0  0  0  0  0  0
   25.4976   -2.6085   27.8282 H   0  0  0  0  0  0  0  0  0  0  0  0
   27.5977   -3.7835   27.5205 H   0  0  0  0  0  0  0  0  0  0  0  0
   31.8871   -2.7025   27.8261 H   0  0  0  0  0  0  0  0  0  0  0  0
   34.6137    2.0534   25.9232 H   0  0  0  0  0  0  0  0  0  0  0  0
   32.3966    1.0712   25.9031 H   0  0  0  0  0  0  0  0  0  0  0  0
   33.3394   -1.1075   29.3906 H   0  0  0  0  0  0  0  0  0  0  0  0
   35.5555   -0.1242   29.4011 H   0  0  0  0  0  0  0  0  0  0  0  0
   30.5505   -1.0924   24.7515 H   0  0  0  0  0  0  0  0  0  0  0  0
   31.4950   -1.4325   22.5471 H   0  0  0  0  0  0  0  0  0  0  0  0
   34.3547   -4.0633   24.1789 H   0  0  0  0  0  0  0  0  0  0  0  0
   33.4142   -3.7218   26.3836 H   0  0  0  0  0  0  0  0  0  0  0  0
   34.5771   -4.6073   21.1126 H   0  0  0  0  0  0  0  0  0  0  0  0
   35.2093   -4.0399   22.6503 H   0  0  0  0  0  0  0  0  0  0  0  0
   36.6818   -3.4975   20.7127 H   0  0  0  0  0  0  0  0  0  0  0  0
   36.1496   -2.0900   21.6109 H   0  0  0  0  0  0  0  0  0  0  0  0
   36.9624   -1.3263   19.0754 H   0  0  0  0  0  0  0  0  0  0  0  0
   35.9217   -0.3988   20.1548 H   0  0  0  0  0  0  0  0  0  0  0  0
   36.0184   -0.2089   17.3813 H   0  0  0  0  0  0  0  0  0  0  0  0
   34.8036    0.4825   18.4676 H   0  0  0  0  0  0  0  0  0  0  0  0
   33.9292   -0.9019   16.5333 H   0  0  0  0  0  0  0  0  0  0  0  0
   33.3337   -1.2973   18.1385 H   0  0  0  0  0  0  0  0  0  0  0  0
   35.4356   -2.7558   16.5706 H   0  0  0  0  0  0  0  0  0  0  0  0
   33.8409   -3.3408   17.0656 H   0  0  0  0  0  0  0  0  0  0  0  0
   36.2953   -3.5921   18.4549 H   0  0  0  0  0  0  0  0  0  0  0  0
   34.6875   -4.1475   18.9299 H   0  0  0  0  0  0  0  0  0  0  0  0
  1  2  1  0  0  0  0
  1 36  1  1  0  0  0
  2  3  1  0  0  0  0
  3  4  2  0  0  0  0
  4  5  1  0  0  0  0
  4 37  1  0  0  0  0
  5  6  1  0  0  0  0
  5  7  2  0  0  0  0
  6 12  1  0  0  0  0
  7  8  1  0  0  0  0
  7 38  1  0  0  0  0
  8  9  2  0  0  0  0
  8 39  1  0  0  0  0
  9 10  1  0  0  0  0
  9  3  1  0  0  0  0
 10 11  1  0  0  0  0
 11 21  1  0  0  0  0
 11  1  1  0  0  0  0
 11 40  1  1  0  0  0
 13 14  1  0  0  0  0
 13 20  1  0  0  0  0
 14 15  2  0  0  0  0
 15 16  1  0  0  0  0
 15 41  1  0  0  0  0
 16 17  2  0  0  0  0
 16 42  1  0  0  0  0
 17  1  1  0  0  0  0
 17 18  1  0  0  0  0
 18 19  2  0  0  0  0
 18 43  1  0  0  0  0
 19 14  1  0  0  0  0
 19 44  1  0  0  0  0
 21 22  2  0  0  0  0
 22 23  1  0  0  0  0
 22 45  1  0  0  0  0
 23 24  2  0  0  0  0
 23 46  1  0  0  0  0
 24 27  1  0  0  0  0
 24 25  1  0  0  0  0
 25 26  2  0  0  0  0
 25 47  1  0  0  0  0
 26 21  1  0  0  0  0
 26 48  1  0  0  0  0
 27 28  1  0  0  0  0
 28 29  1  0  0  0  0
 28 49  1  0  0  0  0
 28 50  1  0  0  0  0
 29 30  1  0  0  0  0
 29 51  1  0  0  0  0
 29 52  1  0  0  0  0
 30 31  1  0  0  0  0
 31 32  1  0  0  0  0
 31 53  1  0  0  0  0
 31 54  1  0  0  0  0
 32 33  1  0  0  0  0
 32 55  1  0  0  0  0
 32 56  1  0  0  0  0
 33 34  1  0  0  0  0
 33 57  1  0  0  0  0
 33 58  1  0  0  0  0
 34 35  1  0  0  0  0
 34 59  1  0  0  0  0
 34 60  1  0  0  0  0
 35 30  1  0  0  0  0
 35 61  1  0  0  0  0
 35 62  1  0  0  0  0
M  END
>  <minimizedAffinity>
-10.95490

$$$$
CHEMBL304552
 OpenBabel01042214213D

 62 66  0  0  0  0  0  0  0  0999 V2000
   31.2171   -0.5453   27.6988 C   0  0  1  0  0  0  0  0  0  0  0  0
   30.0570    0.3749   26.6314 S   0  0  0  0  0  0  0  0  0  0  0  0
   28.6316   -0.5711   27.1670 C   0  0  0  0  0  0  0  0  0  0  0  0
   27.4053    0.0825   27.3292 C   0  0  0  0  0  0  0  0  0  0  0  0
   26.2499   -0.6489   27.6370 C   0  0  0  0  0  0  0  0  0  0  0  0
   25.0192   -0.0076   27.7737 O   0  0  0  0  0  0  0  0  0  0  0  0
   26.3288   -2.0369   27.7930 C   0  0  0  0  0  0  0  0  0  0  0  0
   27.5580   -2.6905   27.6615 C   0  0  0  0  0  0  0  0  0  0  0  0
   28.7192   -1.9625   27.3744 C   0  0  0  0  0  0  0  0  0  0  0  0
   29.9450   -2.6457   27.3516 O   0  0  0  0  0  0  0  0  0  0  0  0
   31.2451   -2.0431   27.3007 C   0  0  1  0  0  0  0  0  0  0  0  0
   24.9216    0.9892   27.6164 H   0  0  0  0  0  0  0  0  0  0  0  0
   36.4931    1.6872   27.6726 O   0  0  0  0  0  0  0  0  0  0  0  0
   35.2110    1.1451   27.6827 C   0  0  0  0  0  0  0  0  0  0  0  0
   34.8223    0.2469   28.6868 C   0  0  0  0  0  0  0  0  0  0  0  0
   33.5309   -0.2894   28.6874 C   0  0  0  0  0  0  0  0  0  0  0  0
   32.6039    0.0753   27.6925 C   0  0  0  0  0  0  0  0  0  0  0  0
   33.0140    0.9620   26.6750 C   0  0  0  0  0  0  0  0  0  0  0  0
   34.3056    1.4978   26.6779 C   0  0  0  0  0  0  0  0  0  0  0  0
   37.1714    1.4451   28.3810 H   0  0  0  0  0  0  0  0  0  0  0  0
   31.8840   -2.3047   25.9491 C   0  0  0  0  0  0  0  0  0  0  0  0
   31.3619   -1.6880   24.7978 C   0  0  0  0  0  0  0  0  0  0  0  0
   31.9204   -1.9390   23.5422 C   0  0  0  0  0  0  0  0  0  0  0  0
   33.0213   -2.8111   23.4149 C   0  0  0  0  0  0  0  0  0  0  0  0
   33.5393   -3.4271   24.5609 C   0  0  0  0  0  0  0  0  0  0  0  0
   32.9819   -3.1755   25.8173 C   0  0  0  0  0  0  0  0  0  0  0  0
   33.6255   -3.1005   22.1794 O   0  0  0  0  0  0  0  0  0  0  0  0
   33.3124   -4.2149   21.3427 C   0  0  0  0  0  0  0  0  0  0  0  0
   33.7267   -3.9399   19.8940 C   0  0  0  0  0  0  0  0  0  0  0  0
   32.5927   -3.3582   19.1399 N   0  0  0  0  0  0  0  0  0  0  0  0
   32.4901   -3.9527   17.7907 C   0  0  0  0  0  0  0  0  0  0  0  0
   31.3912   -3.2704   16.9508 C   0  0  0  0  0  0  0  0  0  0  0  0
   30.5302   -2.3096   17.7772 C   0  0  0  0  0  0  0  0  0  0  0  0
   30.1189   -2.9520   19.1055 C   0  0  0  0  0  0  0  0  0  0  0  0
   31.3230   -3.5387   19.8753 C   0  0  0  0  0  0  0  0  0  0  0  0
   30.8650   -0.4813   28.7072 H   0  0  0  0  0  0  0  0  0  0  0  0
   27.3512    1.1075   27.2218 H   0  0  0  0  0  0  0  0  0  0  0  0
   25.4774   -2.5800   28.0057 H   0  0  0  0  0  0  0  0  0  0  0  0
   27.6096   -3.7148   27.7766 H   0  0  0  0  0  0  0  0  0  0  0  0
   31.8670   -2.5044   28.0392 H   0  0  0  0  0  0  0  0  0  0  0  0
   35.4906   -0.0189   29.4269 H   0  0  0  0  0  0  0  0  0  0  0  0
   33.2550   -0.9582   29.4233 H   0  0  0  0  0  0  0  0  0  0  0  0
   32.3556    1.2173   25.9225 H   0  0  0  0  0  0  0  0  0  0  0  0
   34.5912    2.1557   25.9359 H   0  0  0  0  0  0  0  0  0  0  0  0
   30.5594   -1.0446   24.8814 H   0  0  0  0  0  0  0  0  0  0  0  0
   31.5256   -1.4842   22.7041 H   0  0  0  0  0  0  0  0  0  0  0  0
   34.3400   -4.0727   24.4768 H   0  0  0  0  0  0  0  0  0  0  0  0
   33.3779   -3.6313   26.6542 H   0  0  0  0  0  0  0  0  0  0  0  0
   32.2583   -4.3950   21.3780 H   0  0  0  0  0  0  0  0  0  0  0  0
   33.8483   -5.0709   21.6963 H   0  0  0  0  0  0  0  0  0  0  0  0
   34.0253   -4.8574   19.4315 H   0  0  0  0  0  0  0  0  0  0  0  0
   34.5416   -3.2465   19.8893 H   0  0  0  0  0  0  0  0  0  0  0  0
   32.2582   -4.9929   17.8865 H   0  0  0  0  0  0  0  0  0  0  0  0
   33.4266   -3.8139   17.2921 H   0  0  0  0  0  0  0  0  0  0  0  0
   30.7584   -4.0265   16.5350 H   0  0  0  0  0  0  0  0  0  0  0  0
   31.8751   -2.6975   16.1875 H   0  0  0  0  0  0  0  0  0  0  0  0
   29.6507   -2.0603   17.2211 H   0  0  0  0  0  0  0  0  0  0  0  0
   31.1021   -1.4294   17.9849 H   0  0  0  0  0  0  0  0  0  0  0  0
   29.4228   -3.7395   18.9051 H   0  0  0  0  0  0  0  0  0  0  0  0
   29.6832   -2.1884   19.7154 H   0  0  0  0  0  0  0  0  0  0  0  0
   31.1584   -4.5848   20.0285 H   0  0  0  0  0  0  0  0  0  0  0  0
   31.4043   -3.0188   20.8069 H   0  0  0  0  0  0  0  0  0  0  0  0
  1  2  1  0  0  0  0
  1 36  1  1  0  0  0
  2  3  1  0  0  0  0
  3  4  2  0  0  0  0
  4  5  1  0  0  0  0
  4 37  1  0  0  0  0
  5  6  1  0  0  0  0
  5  7  2  0  0  0  0
  6 12  1  0  0  0  0
  7  8  1  0  0  0  0
  7 38  1  0  0  0  0
  8  9  2  0  0  0  0
  8 39  1  0  0  0  0
  9 10  1  0  0  0  0
  9  3  1  0  0  0  0
 10 11  1  0  0  0  0
 11 21  1  0  0  0  0
 11  1  1  0  0  0  0
 11 40  1  1  0  0  0
 13 14  1  0  0  0  0
 13 20  1  0  0  0  0
 14 15  2  0  0  0  0
 15 16  1  0  0  0  0
 15 41  1  0  0  0  0
 16 17  2  0  0  0  0
 16 42  1  0  0  0  0
 17  1  1  0  0  0  0
 17 18  1  0  0  0  0
 18 19  2  0  0  0  0
 18 43  1  0  0  0  0
 19 14  1  0  0  0  0
 19 44  1  0  0  0  0
 21 22  2  0  0  0  0
 22 23  1  0  0  0  0
 22 45  1  0  0  0  0
 23 24  2  0  0  0  0
 23 46  1  0  0  0  0
 24 27  1  0  0  0  0
 24 25  1  0  0  0  0
 25 26  2  0  0  0  0
 25 47  1  0  0  0  0
 26 21  1  0  0  0  0
 26 48  1  0  0  0  0
 27 28  1  0  0  0  0
 28 29  1  0  0  0  0
 28 49  1  0  0  0  0
 28 50  1  0  0  0  0
 29 30  1  0  0  0  0
 29 51  1  0  0  0  0
 29 52  1  0  0  0  0
 30 31  1  0  0  0  0
 31 32  1  0  0  0  0
 31 53  1  0  0  0  0
 31 54  1  0  0  0  0
 32 33  1  0  0  0  0
 32 55  1  0  0  0  0
 32 56  1  0  0  0  0
 33 34  1  0  0  0  0
 33 57  1  0  0  0  0
 33 58  1  0  0  0  0
 34 35  1  0  0  0  0
 34 59  1  0  0  0  0
 34 60  1  0  0  0  0
 35 30  1  0  0  0  0
 35 61  1  0  0  0  0
 35 62  1  0  0  0  0
M  END
>  <minimizedAffinity>
-11.34243

$$$$
CHEMBL184679
 OpenBabel01042214213D

 59 63  0  0  0  0  0  0  0  0999 V2000
   31.2107   -0.5868   27.6809 C   0  0  1  0  0  0  0  0  0  0  0  0
   30.0403    0.3326   26.6241 S   0  0  0  0  0  0  0  0  0  0  0  0
   28.6197   -0.6407   27.1279 C   0  0  0  0  0  0  0  0  0  0  0  0
   27.3785   -0.0040   27.2523 C   0  0  0  0  0  0  0  0  0  0  0  0
   26.2318   -0.7436   27.5564 C   0  0  0  0  0  0  0  0  0  0  0  0
   25.0029   -0.0958   27.6616 O   0  0  0  0  0  0  0  0  0  0  0  0
   26.3277   -2.1279   27.7443 C   0  0  0  0  0  0  0  0  0  0  0  0
   27.5680   -2.7639   27.6471 C   0  0  0  0  0  0  0  0  0  0  0  0
   28.7232   -2.0274   27.3605 C   0  0  0  0  0  0  0  0  0  0  0  0
   29.9573   -2.6963   27.3683 O   0  0  0  0  0  0  0  0  0  0  0  0
   31.2478   -2.0804   27.2712 C   0  0  1  0  0  0  0  0  0  0  0  0
   24.1523   -0.6057   27.8662 H   0  0  0  0  0  0  0  0  0  0  0  0
   36.5022    1.6050   27.6468 O   0  0  0  0  0  0  0  0  0  0  0  0
   35.2077    1.0906   27.6470 C   0  0  0  0  0  0  0  0  0  0  0  0
   34.8263    0.1804   28.6367 C   0  0  0  0  0  0  0  0  0  0  0  0
   33.5312   -0.3455   28.6486 C   0  0  0  0  0  0  0  0  0  0  0  0
   32.5927    0.0425   27.6760 C   0  0  0  0  0  0  0  0  0  0  0  0
   32.9911    0.9500   26.6732 C   0  0  0  0  0  0  0  0  0  0  0  0
   34.2872    1.4726   26.6635 C   0  0  0  0  0  0  0  0  0  0  0  0
   36.8094    2.2657   26.9423 H   0  0  0  0  0  0  0  0  0  0  0  0
   31.8417   -2.3204   25.8948 C   0  0  0  0  0  0  0  0  0  0  0  0
   32.9321   -3.1955   25.7480 C   0  0  0  0  0  0  0  0  0  0  0  0
   33.5208   -3.3957   24.4969 C   0  0  0  0  0  0  0  0  0  0  0  0
   33.0259   -2.7232   23.3646 C   0  0  0  0  0  0  0  0  0  0  0  0
   31.9362   -1.8581   23.5075 C   0  0  0  0  0  0  0  0  0  0  0  0
   31.3467   -1.6567   24.7582 C   0  0  0  0  0  0  0  0  0  0  0  0
   33.5854   -2.8849   22.0890 O   0  0  0  0  0  0  0  0  0  0  0  0
   33.2980   -3.9743   21.2153 C   0  0  0  0  0  0  0  0  0  0  0  0
   33.3519   -3.5015   19.7627 C   0  0  0  0  0  0  0  0  0  0  0  0
   32.0399   -3.6575   19.1034 N   0  0  0  0  0  0  0  0  0  0  0  0
   31.8024   -2.6529   18.0595 C   0  0  0  0  0  0  0  0  0  0  0  0
   30.2960   -2.4462   17.9752 C   0  0  0  0  0  0  0  0  0  0  0  0
   29.7278   -3.0611   19.2456 C   0  0  1  0  0  0  0  0  0  0  0  0
   28.9505   -4.1663   18.9352 F   0  0  0  0  0  0  0  0  0  0  0  0
   30.9407   -3.4881   20.0559 C   0  0  0  0  0  0  0  0  0  0  0  0
   30.8614   -0.5319   28.6908 H   0  0  0  0  0  0  0  0  0  0  0  0
   27.3100    1.0170   27.1187 H   0  0  0  0  0  0  0  0  0  0  0  0
   25.4811   -2.6792   27.9549 H   0  0  0  0  0  0  0  0  0  0  0  0
   27.6328   -3.7842   27.7877 H   0  0  0  0  0  0  0  0  0  0  0  0
   31.9040   -2.5435   27.9782 H   0  0  0  0  0  0  0  0  0  0  0  0
   35.5034   -0.1045   29.3615 H   0  0  0  0  0  0  0  0  0  0  0  0
   33.2615   -1.0244   29.3775 H   0  0  0  0  0  0  0  0  0  0  0  0
   32.3204    1.2305   25.9407 H   0  0  0  0  0  0  0  0  0  0  0  0
   34.5666    2.1419   25.9294 H   0  0  0  0  0  0  0  0  0  0  0  0
   33.3012   -3.6948   26.5723 H   0  0  0  0  0  0  0  0  0  0  0  0
   34.3219   -4.0395   24.4030 H   0  0  0  0  0  0  0  0  0  0  0  0
   31.5641   -1.3639   22.6815 H   0  0  0  0  0  0  0  0  0  0  0  0
   30.5424   -1.0164   24.8484 H   0  0  0  0  0  0  0  0  0  0  0  0
   32.3205   -4.3530   21.4295 H   0  0  0  0  0  0  0  0  0  0  0  0
   34.0241   -4.7463   21.3626 H   0  0  0  0  0  0  0  0  0  0  0  0
   34.0798   -4.0804   19.2336 H   0  0  0  0  0  0  0  0  0  0  0  0
   33.6160   -2.4647   19.7526 H   0  0  0  0  0  0  0  0  0  0  0  0
   32.1785   -3.0024   17.1207 H   0  0  0  0  0  0  0  0  0  0  0  0
   32.3014   -1.7353   18.2919 H   0  0  0  0  0  0  0  0  0  0  0  0
   29.8991   -2.9383   17.1120 H   0  0  0  0  0  0  0  0  0  0  0  0
   30.0424   -1.4103   17.8886 H   0  0  0  0  0  0  0  0  0  0  0  0
   29.1057   -2.3747   19.7811 H   0  0  0  0  0  0  0  0  0  0  0  0
   30.7424   -4.4113   20.5592 H   0  0  0  0  0  0  0  0  0  0  0  0
   31.1837   -2.7595   20.8009 H   0  0  0  0  0  0  0  0  0  0  0  0
  1  2  1  0  0  0  0
  1 36  1  1  0  0  0
  2  3  1  0  0  0  0
  3  4  2  0  0  0  0
  4  5  1  0  0  0  0
  4 37  1  0  0  0  0
  5  6  1  0  0  0  0
  5  7  2  0  0  0  0
  6 12  1  0  0  0  0
  7  8  1  0  0  0  0
  7 38  1  0  0  0  0
  8  9  2  0  0  0  0
  8 39  1  0  0  0  0
  9 10  1  0  0  0  0
  9  3  1  0  0  0  0
 10 11  1  0  0  0  0
 11 21  1  0  0  0  0
 11  1  1  0  0  0  0
 11 40  1  1  0  0  0
 13 14  1  0  0  0  0
 13 20  1  0  0  0  0
 14 15  2  0  0  0  0
 15 16  1  0  0  0  0
 15 41  1  0  0  0  0
 16 17  2  0  0  0  0
 16 42  1  0  0  0  0
 17  1  1  0  0  0  0
 17 18  1  0  0  0  0
 18 19  2  0  0  0  0
 18 43  1  0  0  0  0
 19 14  1  0  0  0  0
 19 44  1  0  0  0  0
 21 22  2  0  0  0  0
 22 23  1  0  0  0  0
 22 45  1  0  0  0  0
 23 24  2  0  0  0  0
 23 46  1  0  0  0  0
 24 27  1  0  0  0  0
 24 25  1  0  0  0  0
 25 26  2  0  0  0  0
 25 47  1  0  0  0  0
 26 21  1  0  0  0  0
 26 48  1  0  0  0  0
 27 28  1  0  0  0  0
 28 29  1  0  0  0  0
 28 49  1  0  0  0  0
 28 50  1  0  0  0  0
 29 30  1  0  0  0  0
 29 51  1  0  0  0  0
 29 52  1  0  0  0  0
 30 31  1  0  0  0  0
 31 32  1  0  0  0  0
 31 53  1  0  0  0  0
 31 54  1  0  0  0  0
 32 33  1  0  0  0  0
 32 55  1  0  0  0  0
 32 56  1  0  0  0  0
 33 34  1  0  0  0  0
 33 35  1  0  0  0  0
 33 57  1  1  0  0  0
 35 30  1  0  0  0  0
 35 58  1  0  0  0  0
 35 59  1  0  0  0  0
M  END
>  <minimizedAffinity>
-11.49805

$$$$
CHEMBL135
 OpenBabel01042214213D

 44 47  0  0  0  0  0  0  0  0999 V2000
   27.8848   -2.1619   26.4598 C   0  0  0  0  0  0  0  0  0  0  0  0
   28.6751   -0.8213   26.6023 C   0  0  2  0  0  0  0  0  0  0  0  0
   28.8870   -0.1863   25.2113 C   0  0  0  0  0  0  0  0  0  0  0  0
   29.8602   -1.0269   24.3446 C   0  0  0  0  0  0  0  0  0  0  0  0
   31.2056   -1.3539   25.0657 C   0  0  2  0  0  0  0  0  0  0  0  0
   32.1440   -2.2590   24.2654 C   0  0  0  0  0  0  0  0  0  0  0  0
   32.1959   -2.1911   22.8558 C   0  0  0  0  0  0  0  0  0  0  0  0
   33.1123   -2.9572   22.1338 C   0  0  0  0  0  0  0  0  0  0  0  0
   34.0156   -3.7876   22.7996 C   0  0  0  0  0  0  0  0  0  0  0  0
   34.9294   -4.5602   22.0861 O   0  0  0  0  0  0  0  0  0  0  0  0
   34.0071   -3.8420   24.1930 C   0  0  0  0  0  0  0  0  0  0  0  0
   33.0999   -3.0705   24.9376 C   0  0  0  0  0  0  0  0  0  0  0  0
   33.1270   -3.2124   26.4445 C   0  0  0  0  0  0  0  0  0  0  0  0
   32.3216   -2.1359   27.1768 C   0  0  0  0  0  0  0  0  0  0  0  0
   30.9649   -1.9418   26.4887 C   0  0  1  0  0  0  0  0  0  0  0  0
   30.0520   -0.9740   27.2646 C   0  0  2  0  0  0  0  0  0  0  0  0
   29.7478   -1.2418   28.7343 C   0  0  0  0  0  0  0  0  0  0  0  0
   28.4778   -0.4155   29.0114 C   0  0  0  0  0  0  0  0  0  0  0  0
   27.9809    0.0940   27.6336 C   0  0  2  0  0  0  0  0  0  0  0  0
   26.5771    0.1258   27.5119 O   0  0  0  0  0  0  0  0  0  0  0  0
   34.9619   -4.5421   21.0735 H   0  0  0  0  0  0  0  0  0  0  0  0
   26.2008   -0.6955   27.9207 H   0  0  0  0  0  0  0  0  0  0  0  0
   28.3730   -2.7893   25.7436 H   0  0  0  0  0  0  0  0  0  0  0  0
   26.8876   -1.9549   26.1317 H   0  0  0  0  0  0  0  0  0  0  0  0
   27.8527   -2.6594   27.4066 H   0  0  0  0  0  0  0  0  0  0  0  0
   29.2924    0.7961   25.3357 H   0  0  0  0  0  0  0  0  0  0  0  0
   27.9412   -0.1479   24.7124 H   0  0  0  0  0  0  0  0  0  0  0  0
   30.0781   -0.4797   23.4513 H   0  0  0  0  0  0  0  0  0  0  0  0
   29.3765   -1.9590   24.1392 H   0  0  0  0  0  0  0  0  0  0  0  0
   31.7053   -0.4120   25.1549 H   0  0  0  0  0  0  0  0  0  0  0  0
   31.5470   -1.5661   22.3524 H   0  0  0  0  0  0  0  0  0  0  0  0
   33.1222   -2.9096   21.1029 H   0  0  0  0  0  0  0  0  0  0  0  0
   34.6756   -4.4567   24.6831 H   0  0  0  0  0  0  0  0  0  0  0  0
   34.1442   -3.1546   26.7713 H   0  0  0  0  0  0  0  0  0  0  0  0
   32.6768   -4.1544   26.6788 H   0  0  0  0  0  0  0  0  0  0  0  0
   32.8637   -1.2136   27.1592 H   0  0  0  0  0  0  0  0  0  0  0  0
   32.1627   -2.4423   28.1896 H   0  0  0  0  0  0  0  0  0  0  0  0
   30.4808   -2.8951   26.4460 H   0  0  0  0  0  0  0  0  0  0  0  0
   30.6738   -0.1039   27.2289 H   0  0  0  0  0  0  0  0  0  0  0  0
   30.5561   -0.9158   29.3551 H   0  0  0  0  0  0  0  0  0  0  0  0
   29.6143   -2.2827   28.9431 H   0  0  0  0  0  0  0  0  0  0  0  0
   28.7058    0.4109   29.6518 H   0  0  0  0  0  0  0  0  0  0  0  0
   27.7302   -1.0038   29.5012 H   0  0  0  0  0  0  0  0  0  0  0  0
   28.2390    1.1210   27.4804 H   0  0  0  0  0  0  0  0  0  0  0  0
  1 23  1  0  0  0  0
  1 24  1  0  0  0  0
  1 25  1  0  0  0  0
  2  1  1  6  0  0  0
  2  3  1  0  0  0  0
  3  4  1  0  0  0  0
  3 26  1  0  0  0  0
  3 27  1  0  0  0  0
  4  5  1  0  0  0  0
  4 28  1  0  0  0  0
  4 29  1  0  0  0  0
  5  6  1  0  0  0  0
  5 30  1  1  0  0  0
  6  7  2  0  0  0  0
  7  8  1  0  0  0  0
  7 31  1  0  0  0  0
  8  9  2  0  0  0  0
  8 32  1  0  0  0  0
  9 10  1  0  0  0  0
  9 11  1  0  0  0  0
 10 21  1  0  0  0  0
 11 12  2  0  0  0  0
 11 33  1  0  0  0  0
 12 13  1  0  0  0  0
 12  6  1  0  0  0  0
 13 14  1  0  0  0  0
 13 34  1  0  0  0  0
 13 35  1  0  0  0  0
 14 15  1  0  0  0  0
 14 36  1  0  0  0  0
 14 37  1  0  0  0  0
 15 16  1  0  0  0  0
 15  5  1  0  0  0  0
 15 38  1  6  0  0  0
 16 17  1  0  0  0  0
 16  2  1  0  0  0  0
 16 39  1  6  0  0  0
 17 18  1  0  0  0  0
 17 40  1  0  0  0  0
 17 41  1  0  0  0  0
 18 19  1  0  0  0  0
 18 42  1  0  0  0  0
 18 43  1  0  0  0  0
 19 20  1  0  0  0  0
 19  2  1  0  0  0  0
 19 44  1  6  0  0  0
 20 22  1  0  0  0  0
M  END
>  <minimizedAffinity>
-7.72981

$$$$
CHEMBL135
 OpenBabel01042214213D

 44 47  0  0  0  0  0  0  0  0999 V2000
   38.0189   -0.5211   18.9243 C   0  0  0  0  0  0  0  0  0  0  0  0
   37.0054    0.4336   18.2148 C   0  0  2  0  0  0  0  0  0  0  0  0
   35.5761    0.1578   18.7289 C   0  0  0  0  0  0  0  0  0  0  0  0
   35.0643   -1.2318   18.2684 C   0  0  0  0  0  0  0  0  0  0  0  0
   35.2038   -1.4640   16.7310 C   0  0  2  0  0  0  0  0  0  0  0  0
   34.7905   -2.8618   16.2663 C   0  0  0  0  0  0  0  0  0  0  0  0
   33.7472   -3.5646   16.9080 C   0  0  0  0  0  0  0  0  0  0  0  0
   33.3160   -4.8028   16.4297 C   0  0  0  0  0  0  0  0  0  0  0  0
   33.8947   -5.3569   15.2865 C   0  0  0  0  0  0  0  0  0  0  0  0
   33.4743   -6.5952   14.8061 O   0  0  0  0  0  0  0  0  0  0  0  0
   34.9010   -4.6629   14.6153 C   0  0  0  0  0  0  0  0  0  0  0  0
   35.3410   -3.4109   15.0748 C   0  0  0  0  0  0  0  0  0  0  0  0
   36.4630   -2.7369   14.3141 C   0  0  0  0  0  0  0  0  0  0  0  0
   36.6735   -1.2710   14.7020 C   0  0  0  0  0  0  0  0  0  0  0  0
   36.6396   -1.1258   16.2283 C   0  0  1  0  0  0  0  0  0  0  0  0
   36.9886    0.3031   16.6849 C   0  0  2  0  0  0  0  0  0  0  0  0
   38.2952    0.9413   16.2269 C   0  0  0  0  0  0  0  0  0  0  0  0
   38.5270    2.0849   17.2324 C   0  0  0  0  0  0  0  0  0  0  0  0
   37.4729    1.8982   18.3544 C   0  0  2  0  0  0  0  0  0  0  0  0
   37.9484    2.2234   19.6408 O   0  0  0  0  0  0  0  0  0  0  0  0
   32.7447   -7.1237   15.2701 H   0  0  0  0  0  0  0  0  0  0  0  0
   38.8704    1.8726   19.7403 H   0  0  0  0  0  0  0  0  0  0  0  0
   37.6869   -1.5332   18.8224 H   0  0  0  0  0  0  0  0  0  0  0  0
   38.0800   -0.2686   19.9623 H   0  0  0  0  0  0  0  0  0  0  0  0
   38.9838   -0.4152   18.4741 H   0  0  0  0  0  0  0  0  0  0  0  0
   34.9190    0.9130   18.3510 H   0  0  0  0  0  0  0  0  0  0  0  0
   35.5960    0.1704   19.7986 H   0  0  0  0  0  0  0  0  0  0  0  0
   34.0309   -1.3174   18.5322 H   0  0  0  0  0  0  0  0  0  0  0  0
   35.6678   -1.9688   18.7558 H   0  0  0  0  0  0  0  0  0  0  0  0
   34.5070   -0.7845   16.2864 H   0  0  0  0  0  0  0  0  0  0  0  0
   33.2972   -3.1569   17.7424 H   0  0  0  0  0  0  0  0  0  0  0  0
   32.5658   -5.3112   16.9235 H   0  0  0  0  0  0  0  0  0  0  0  0
   35.3276   -5.0744   13.7705 H   0  0  0  0  0  0  0  0  0  0  0  0
   36.2372   -2.7811   13.2691 H   0  0  0  0  0  0  0  0  0  0  0  0
   37.3648   -3.2584   14.5585 H   0  0  0  0  0  0  0  0  0  0  0  0
   35.8963   -0.6748   14.2714 H   0  0  0  0  0  0  0  0  0  0  0  0
   37.6245   -0.9429   14.3376 H   0  0  0  0  0  0  0  0  0  0  0  0
   37.3690   -1.7939   16.6363 H   0  0  0  0  0  0  0  0  0  0  0  0
   36.1966    0.8269   16.1917 H   0  0  0  0  0  0  0  0  0  0  0  0
   38.2030    1.3233   15.2317 H   0  0  0  0  0  0  0  0  0  0  0  0
   39.1067    0.2443   16.2033 H   0  0  0  0  0  0  0  0  0  0  0  0
   38.3941    3.0323   16.7531 H   0  0  0  0  0  0  0  0  0  0  0  0
   39.5219    2.0614   17.6256 H   0  0  0  0  0  0  0  0  0  0  0  0
   36.6568    2.5810   18.2416 H   0  0  0  0  0  0  0  0  0  0  0  0
  1 23  1  0  0  0  0
  1 24  1  0  0  0  0
  1 25  1  0  0  0  0
  2  1  1  1  0  0  0
  2  3  1  0  0  0  0
  3  4  1  0  0  0  0
  3 26  1  0  0  0  0
  3 27  1  0  0  0  0
  4  5  1  0  0  0  0
  4 28  1  0  0  0  0
  4 29  1  0  0  0  0
  5  6  1  0  0  0  0
  5 30  1  6  0  0  0
  6  7  2  0  0  0  0
  7  8  1  0  0  0  0
  7 31  1  0  0  0  0
  8  9  2  0  0  0  0
  8 32  1  0  0  0  0
  9 10  1  0  0  0  0
  9 11  1  0  0  0  0
 10 21  1  0  0  0  0
 11 12  2  0  0  0  0
 11 33  1  0  0  0  0
 12 13  1  0  0  0  0
 12  6  1  0  0  0  0
 13 14  1  0  0  0  0
 13 34  1  0  0  0  0
 13 35  1  0  0  0  0
 14 15  1  0  0  0  0
 14 36  1  0  0  0  0
 14 37  1  0  0  0  0
 15 16  1  0  0  0  0
 15  5  1  0  0  0  0
 15 38  1  1  0  0  0
 16 17  1  0  0  0  0
 16  2  1  0  0  0  0
 16 39  1  6  0  0  0
 17 18  1  0  0  0  0
 17 40  1  0  0  0  0
 17 41  1  0  0  0  0
 18 19  1  0  0  0  0
 18 42  1  0  0  0  0
 18 43  1  0  0  0  0
 19 20  1  0  0  0  0
 19  2  1  0  0  0  0
 19 44  1  6  0  0  0
 20 22  1  0  0  0  0
M  END
>  <minimizedAffinity>
-7.75927

$$$$
CHEMBL135
 OpenBabel01042214213D

 44 47  0  0  0  0  0  0  0  0999 V2000
   38.2049   -2.1671   16.7460 C   0  0  0  0  0  0  0  0  0  0  0  0
   37.7407   -0.7790   17.2934 C   0  0  2  0  0  0  0  0  0  0  0  0
   37.9836   -0.7072   18.8163 C   0  0  0  0  0  0  0  0  0  0  0  0
   37.0458   -1.6717   19.5879 C   0  0  0  0  0  0  0  0  0  0  0  0
   35.5400   -1.5028   19.2121 C   0  0  2  0  0  0  0  0  0  0  0  0
   34.6061   -2.5054   19.8925 C   0  0  0  0  0  0  0  0  0  0  0  0
   34.8711   -2.9803   21.1957 C   0  0  0  0  0  0  0  0  0  0  0  0
   33.9742   -3.8290   21.8463 C   0  0  0  0  0  0  0  0  0  0  0  0
   32.7810   -4.2025   21.2255 C   0  0  0  0  0  0  0  0  0  0  0  0
   31.8831   -5.0541   21.8654 O   0  0  0  0  0  0  0  0  0  0  0  0
   32.4814   -3.7154   19.9535 C   0  0  0  0  0  0  0  0  0  0  0  0
   33.3660   -2.8518   19.2872 C   0  0  0  0  0  0  0  0  0  0  0  0
   32.9881   -2.3957   17.8940 C   0  0  0  0  0  0  0  0  0  0  0  0
   33.8506   -1.2445   17.3702 C   0  0  0  0  0  0  0  0  0  0  0  0
   35.3289   -1.5233   17.6683 C   0  0  1  0  0  0  0  0  0  0  0  0
   36.2585   -0.4694   17.0381 C   0  0  2  0  0  0  0  0  0  0  0  0
   36.1730   -0.1890   15.5421 C   0  0  0  0  0  0  0  0  0  0  0  0
   37.5137    0.4933   15.2109 C   0  0  0  0  0  0  0  0  0  0  0  0
   38.3965    0.3563   16.4784 C   0  0  2  0  0  0  0  0  0  0  0  0
   39.7614    0.1415   16.2000 O   0  0  0  0  0  0  0  0  0  0  0  0
   32.0708   -5.4240   22.7901 H   0  0  0  0  0  0  0  0  0  0  0  0
   39.8385   -0.5023   15.4498 H   0  0  0  0  0  0  0  0  0  0  0  0
   37.7457   -2.9472   17.3165 H   0  0  0  0  0  0  0  0  0  0  0  0
   39.2690   -2.2448   16.8273 H   0  0  0  0  0  0  0  0  0  0  0  0
   37.9179   -2.2597   15.7194 H   0  0  0  0  0  0  0  0  0  0  0  0
   37.8041    0.2934   19.1502 H   0  0  0  0  0  0  0  0  0  0  0  0
   38.9953   -0.9974   19.0088 H   0  0  0  0  0  0  0  0  0  0  0  0
   37.1569   -1.4870   20.6360 H   0  0  0  0  0  0  0  0  0  0  0  0
   37.3286   -2.6687   19.3215 H   0  0  0  0  0  0  0  0  0  0  0  0
   35.2689   -0.5394   19.5907 H   0  0  0  0  0  0  0  0  0  0  0  0
   35.7403   -2.6958   21.6738 H   0  0  0  0  0  0  0  0  0  0  0  0
   34.1942   -4.1821   22.7907 H   0  0  0  0  0  0  0  0  0  0  0  0
   31.5988   -3.9930   19.4963 H   0  0  0  0  0  0  0  0  0  0  0  0
   31.9677   -2.0742   17.9086 H   0  0  0  0  0  0  0  0  0  0  0  0
   33.1438   -3.2273   17.2389 H   0  0  0  0  0  0  0  0  0  0  0  0
   33.5573   -0.3343   17.8503 H   0  0  0  0  0  0  0  0  0  0  0  0
   33.7149   -1.1552   16.3126 H   0  0  0  0  0  0  0  0  0  0  0  0
   35.5728   -2.4768   17.2485 H   0  0  0  0  0  0  0  0  0  0  0  0
   35.8812    0.3974   17.5393 H   0  0  0  0  0  0  0  0  0  0  0  0
   35.3517    0.4612   15.3238 H   0  0  0  0  0  0  0  0  0  0  0  0
   36.0103   -1.0762   14.9665 H   0  0  0  0  0  0  0  0  0  0  0  0
   37.3565    1.5259   14.9787 H   0  0  0  0  0  0  0  0  0  0  0  0
   37.9807    0.0412   14.3610 H   0  0  0  0  0  0  0  0  0  0  0  0
   38.4259    1.2698   17.0348 H   0  0  0  0  0  0  0  0  0  0  0  0
  1 23  1  0  0  0  0
  1 24  1  0  0  0  0
  1 25  1  0  0  0  0
  2  1  1  6  0  0  0
  2  3  1  0  0  0  0
  3  4  1  0  0  0  0
  3 26  1  0  0  0  0
  3 27  1  0  0  0  0
  4  5  1  0  0  0  0
  4 28  1  0  0  0  0
  4 29  1  0  0  0  0
  5  6  1  0  0  0  0
  5 30  1  1  0  0  0
  6  7  2  0  0  0  0
  7  8  1  0  0  0  0
  7 31  1  0  0  0  0
  8  9  2  0  0  0  0
  8 32  1  0  0  0  0
  9 10  1  0  0  0  0
  9 11  1  0  0  0  0
 10 21  1  0  0  0  0
 11 12  2  0  0  0  0
 11 33  1  0  0  0  0
 12 13  1  0  0  0  0
 12  6  1  0  0  0  0
 13 14  1  0  0  0  0
 13 34  1  0  0  0  0
 13 35  1  0  0  0  0
 14 15  1  0  0  0  0
 14 36  1  0  0  0  0
 14 37  1  0  0  0  0
 15 16  1  0  0  0  0
 15  5  1  0  0  0  0
 15 38  1  6  0  0  0
 16 17  1  0  0  0  0
 16  2  1  0  0  0  0
 16 39  1  1  0  0  0
 17 18  1  0  0  0  0
 17 40  1  0  0  0  0
 17 41  1  0  0  0  0
 18 19  1  0  0  0  0
 18 42  1  0  0  0  0
 18 43  1  0  0  0  0
 19 20  1  0  0  0  0
 19  2  1  0  0  0  0
 19 44  1  1  0  0  0
 20 22  1  0  0  0  0
M  END
>  <minimizedAffinity>
-7.97216

$$$$
CHEMBL362718
 OpenBabel01042214213D

 60 64  0  0  0  0  0  0  0  0999 V2000
   35.5868   -1.5755   16.5329 C   0  0  1  0  0  0  0  0  0  0  0  0
   34.3830   -2.9526   16.4417 S   0  0  0  0  0  0  0  0  0  0  0  0
   34.4901   -3.5577   18.1397 C   0  0  0  0  0  0  0  0  0  0  0  0
   34.0294   -4.8563   18.3965 C   0  0  0  0  0  0  0  0  0  0  0  0
   34.1021   -5.3969   19.6836 C   0  0  0  0  0  0  0  0  0  0  0  0
   33.6313   -6.6874   19.9155 O   0  0  0  0  0  0  0  0  0  0  0  0
   34.6484   -4.6387   20.7251 C   0  0  0  0  0  0  0  0  0  0  0  0
   35.1252   -3.3501   20.4763 C   0  0  0  0  0  0  0  0  0  0  0  0
   35.0524   -2.8013   19.1908 C   0  0  0  0  0  0  0  0  0  0  0  0
   35.5975   -1.5320   18.9841 O   0  0  0  0  0  0  0  0  0  0  0  0
   35.3714   -0.7512   17.8157 C   0  0  1  0  0  0  0  0  0  0  0  0
   33.6714   -7.1082   20.8364 H   0  0  0  0  0  0  0  0  0  0  0  0
   40.9440   -3.3843   15.5710 O   0  0  0  0  0  0  0  0  0  0  0  0
   39.6482   -2.9361   15.8165 C   0  0  0  0  0  0  0  0  0  0  0  0
   39.2261   -1.7172   15.2809 C   0  0  0  0  0  0  0  0  0  0  0  0
   37.9276   -1.2549   15.5143 C   0  0  0  0  0  0  0  0  0  0  0  0
   37.0296   -2.0057   16.2987 C   0  0  0  0  0  0  0  0  0  0  0  0
   37.4671   -3.2350   16.8296 C   0  0  0  0  0  0  0  0  0  0  0  0
   38.7648   -3.6949   16.5919 C   0  0  0  0  0  0  0  0  0  0  0  0
   41.2793   -4.2650   15.9440 H   0  0  0  0  0  0  0  0  0  0  0  0
   36.2431    0.4860   17.8347 C   0  0  0  0  0  0  0  0  0  0  0  0
   36.0243    1.5410   16.9309 C   0  0  0  0  0  0  0  0  0  0  0  0
   36.7936    2.7050   17.0032 C   0  0  0  0  0  0  0  0  0  0  0  0
   37.7860    2.8423   17.9791 C   0  0  0  0  0  0  0  0  0  0  0  0
   38.0023    1.7927   18.8912 C   0  0  0  0  0  0  0  0  0  0  0  0
   37.2321    0.6283   18.8211 C   0  0  0  0  0  0  0  0  0  0  0  0
   38.5269    4.0321   18.0110 O   0  0  0  0  0  0  0  0  0  0  0  0
   38.4583    5.0534   17.0188 C   0  0  0  0  0  0  0  0  0  0  0  0
   39.8233    5.7339   16.8637 C   0  0  0  0  0  0  0  0  0  0  0  0
   39.8471    7.0778   17.4880 N   0  0  0  0  0  0  0  0  0  0  0  0
   38.4756    7.5821   17.7557 C   0  0  0  0  0  0  0  0  0  0  0  0
   38.4519    8.7156   18.7839 C   0  0  0  0  0  0  0  0  0  0  0  0
   38.8506    8.1082   20.4642 S   0  0  0  0  0  0  0  0  0  0  0  0
   40.0062    6.7733   19.9795 C   0  0  0  0  0  0  0  0  0  0  0  0
   40.7392    7.1046   18.6758 C   0  0  0  0  0  0  0  0  0  0  0  0
   35.3908   -0.9221   15.7086 H   0  0  0  0  0  0  0  0  0  0  0  0
   33.6326   -5.4189   17.6277 H   0  0  0  0  0  0  0  0  0  0  0  0
   34.6989   -5.0322   21.6778 H   0  0  0  0  0  0  0  0  0  0  0  0
   35.5345   -2.7981   21.2462 H   0  0  0  0  0  0  0  0  0  0  0  0
   34.3478   -0.4394   17.8152 H   0  0  0  0  0  0  0  0  0  0  0  0
   39.8762   -1.1549   14.7098 H   0  0  0  0  0  0  0  0  0  0  0  0
   37.6241   -0.3559   15.1085 H   0  0  0  0  0  0  0  0  0  0  0  0
   36.8215   -3.8025   17.4008 H   0  0  0  0  0  0  0  0  0  0  0  0
   39.0724   -4.5963   16.9892 H   0  0  0  0  0  0  0  0  0  0  0  0
   35.2910    1.4549   16.2099 H   0  0  0  0  0  0  0  0  0  0  0  0
   36.6282    3.4701   16.3307 H   0  0  0  0  0  0  0  0  0  0  0  0
   38.7325    1.8830   19.6148 H   0  0  0  0  0  0  0  0  0  0  0  0
   37.3917   -0.1327   19.4997 H   0  0  0  0  0  0  0  0  0  0  0  0
   37.7314    5.7820   17.3113 H   0  0  0  0  0  0  0  0  0  0  0  0
   38.1793    4.6137   16.0841 H   0  0  0  0  0  0  0  0  0  0  0  0
   40.0435    5.8332   15.8213 H   0  0  0  0  0  0  0  0  0  0  0  0
   40.5534    5.1270   17.3571 H   0  0  0  0  0  0  0  0  0  0  0  0
   37.8797    6.7734   18.1242 H   0  0  0  0  0  0  0  0  0  0  0  0
   38.0901    7.9719   16.8368 H   0  0  0  0  0  0  0  0  0  0  0  0
   37.4758    9.1538   18.7954 H   0  0  0  0  0  0  0  0  0  0  0  0
   39.1909    9.4371   18.5043 H   0  0  0  0  0  0  0  0  0  0  0  0
   39.4530    5.8672   19.8457 H   0  0  0  0  0  0  0  0  0  0  0  0
   40.7360    6.6659   20.7546 H   0  0  0  0  0  0  0  0  0  0  0  0
   41.5208    6.3881   18.5320 H   0  0  0  0  0  0  0  0  0  0  0  0
   41.1227    8.0993   18.7669 H   0  0  0  0  0  0  0  0  0  0  0  0
  1  2  1  0  0  0  0
  1 36  1  6  0  0  0
  2  3  1  0  0  0  0
  3  4  2  0  0  0  0
  4  5  1  0  0  0  0
  4 37  1  0  0  0  0
  5  6  1  0  0  0  0
  5  7  2  0  0  0  0
  6 12  1  0  0  0  0
  7  8  1  0  0  0  0
  7 38  1  0  0  0  0
  8  9  2  0  0  0  0
  8 39  1  0  0  0  0
  9 10  1  0  0  0  0
  9  3  1  0  0  0  0
 10 11  1  0  0  0  0
 11 21  1  0  0  0  0
 11  1  1  0  0  0  0
 11 40  1  1  0  0  0
 13 14  1  0  0  0  0
 13 20  1  0  0  0  0
 14 15  2  0  0  0  0
 15 16  1  0  0  0  0
 15 41  1  0  0  0  0
 16 17  2  0  0  0  0
 16 42  1  0  0  0  0
 17  1  1  0  0  0  0
 17 18  1  0  0  0  0
 18 19  2  0  0  0  0
 18 43  1  0  0  0  0
 19 14  1  0  0  0  0
 19 44  1  0  0  0  0
 21 22  2  0  0  0  0
 22 23  1  0  0  0  0
 22 45  1  0  0  0  0
 23 24  2  0  0  0  0
 23 46  1  0  0  0  0
 24 27  1  0  0  0  0
 24 25  1  0  0  0  0
 25 26  2  0  0  0  0
 25 47  1  0  0  0  0
 26 21  1  0  0  0  0
 26 48  1  0  0  0  0
 27 28  1  0  0  0  0
 28 29  1  0  0  0  0
 28 49  1  0  0  0  0
 28 50  1  0  0  0  0
 29 30  1  0  0  0  0
 29 51  1  0  0  0  0
 29 52  1  0  0  0  0
 30 31  1  0  0  0  0
 31 32  1  0  0  0  0
 31 53  1  0  0  0  0
 31 54  1  0  0  0  0
 32 33  1  0  0  0  0
 32 55  1  0  0  0  0
 32 56  1  0  0  0  0
 33 34  1  0  0  0  0
 34 35  1  0  0  0  0
 34 57  1  0  0  0  0
 34 58  1  0  0  0  0
 35 30  1  0  0  0  0
 35 59  1  0  0  0  0
 35 60  1  0  0  0  0
M  END
>  <minimizedAffinity>
-8.00431

$$$$
CHEMBL362718
 OpenBabel01042214213D

 60 64  0  0  0  0  0  0  0  0999 V2000
   38.0655   -0.0577   17.5607 C   0  0  1  0  0  0  0  0  0  0  0  0
   38.6885    1.5335   16.9209 S   0  0  0  0  0  0  0  0  0  0  0  0
   37.1665    1.9851   16.0879 C   0  0  0  0  0  0  0  0  0  0  0  0
   37.2402    2.6740   14.8710 C   0  0  0  0  0  0  0  0  0  0  0  0
   36.0704    3.1051   14.2314 C   0  0  0  0  0  0  0  0  0  0  0  0
   36.1343    3.8006   13.0261 O   0  0  0  0  0  0  0  0  0  0  0  0
   34.8261    2.8395   14.8099 C   0  0  0  0  0  0  0  0  0  0  0  0
   34.7479    2.1281   16.0102 C   0  0  0  0  0  0  0  0  0  0  0  0
   35.9113    1.6791   16.6453 C   0  0  0  0  0  0  0  0  0  0  0  0
   35.7800    0.8676   17.7805 O   0  0  0  0  0  0  0  0  0  0  0  0
   36.8552    0.2378   18.4903 C   0  0  1  0  0  0  0  0  0  0  0  0
   37.0205    4.0068   12.5801 H   0  0  0  0  0  0  0  0  0  0  0  0
   37.4740   -3.7975   13.2477 O   0  0  0  0  0  0  0  0  0  0  0  0
   37.6096   -2.8921   14.2975 C   0  0  0  0  0  0  0  0  0  0  0  0
   36.4690   -2.3398   14.8844 C   0  0  0  0  0  0  0  0  0  0  0  0
   36.5871   -1.4286   15.9379 C   0  0  0  0  0  0  0  0  0  0  0  0
   37.8587   -1.0532   16.4227 C   0  0  0  0  0  0  0  0  0  0  0  0
   38.9984   -1.6220   15.8245 C   0  0  0  0  0  0  0  0  0  0  0  0
   38.8758   -2.5313   14.7708 C   0  0  0  0  0  0  0  0  0  0  0  0
   38.2821   -4.2153   12.8013 H   0  0  0  0  0  0  0  0  0  0  0  0
   36.3128   -0.9554   19.2702 C   0  0  0  0  0  0  0  0  0  0  0  0
   34.9350   -1.2330   19.4005 C   0  0  0  0  0  0  0  0  0  0  0  0
   34.4992   -2.3567   20.1077 C   0  0  0  0  0  0  0  0  0  0  0  0
   35.4176   -3.2379   20.6832 C   0  0  0  0  0  0  0  0  0  0  0  0
   36.7921   -2.9870   20.5352 C   0  0  0  0  0  0  0  0  0  0  0  0
   37.2310   -1.8636   19.8296 C   0  0  0  0  0  0  0  0  0  0  0  0
   34.9251   -4.3454   21.3875 O   0  0  0  0  0  0  0  0  0  0  0  0
   33.9842   -5.2817   20.8675 C   0  0  0  0  0  0  0  0  0  0  0  0
   34.6589   -6.1849   19.8287 C   0  0  0  0  0  0  0  0  0  0  0  0
   33.7887   -6.4391   18.6547 N   0  0  0  0  0  0  0  0  0  0  0  0
   34.2527   -7.5876   17.8319 C   0  0  0  0  0  0  0  0  0  0  0  0
   34.8971   -7.1945   16.4910 C   0  0  0  0  0  0  0  0  0  0  0  0
   36.0087   -5.7692   16.6921 S   0  0  0  0  0  0  0  0  0  0  0  0
   34.7147   -4.5812   17.2193 C   0  0  0  0  0  0  0  0  0  0  0  0
   33.4721   -5.2379   17.8505 C   0  0  0  0  0  0  0  0  0  0  0  0
   38.7758   -0.5660   18.1788 H   0  0  0  0  0  0  0  0  0  0  0  0
   38.1599    2.8650   14.4435 H   0  0  0  0  0  0  0  0  0  0  0  0
   33.9633    3.1694   14.3497 H   0  0  0  0  0  0  0  0  0  0  0  0
   33.8261    1.9326   16.4310 H   0  0  0  0  0  0  0  0  0  0  0  0
   37.2646    0.9059   19.2190 H   0  0  0  0  0  0  0  0  0  0  0  0
   35.5338   -2.6058   14.5384 H   0  0  0  0  0  0  0  0  0  0  0  0
   35.7377   -1.0270   16.3648 H   0  0  0  0  0  0  0  0  0  0  0  0
   39.9366   -1.3642   16.1684 H   0  0  0  0  0  0  0  0  0  0  0  0
   39.7212   -2.9378   14.3406 H   0  0  0  0  0  0  0  0  0  0  0  0
   34.2430   -0.6002   18.9695 H   0  0  0  0  0  0  0  0  0  0  0  0
   33.4879   -2.5375   20.2058 H   0  0  0  0  0  0  0  0  0  0  0  0
   37.4803   -3.6350   20.9493 H   0  0  0  0  0  0  0  0  0  0  0  0
   38.2433   -1.6974   19.7170 H   0  0  0  0  0  0  0  0  0  0  0  0
   33.1769   -4.7527   20.4055 H   0  0  0  0  0  0  0  0  0  0  0  0
   33.6124   -5.8861   21.6684 H   0  0  0  0  0  0  0  0  0  0  0  0
   34.8975   -7.1207   20.2894 H   0  0  0  0  0  0  0  0  0  0  0  0
   35.5390   -5.6847   19.4820 H   0  0  0  0  0  0  0  0  0  0  0  0
   33.4095   -8.2135   17.6264 H   0  0  0  0  0  0  0  0  0  0  0  0
   35.0125   -8.0815   18.4008 H   0  0  0  0  0  0  0  0  0  0  0  0
   34.1261   -6.9408   15.7938 H   0  0  0  0  0  0  0  0  0  0  0  0
   35.4697   -8.0244   16.1328 H   0  0  0  0  0  0  0  0  0  0  0  0
   34.4005   -4.0249   16.3610 H   0  0  0  0  0  0  0  0  0  0  0  0
   35.1537   -3.9648   17.9757 H   0  0  0  0  0  0  0  0  0  0  0  0
   32.8025   -5.5216   17.0656 H   0  0  0  0  0  0  0  0  0  0  0  0
   33.0363   -4.5194   18.5128 H   0  0  0  0  0  0  0  0  0  0  0  0
  1  2  1  0  0  0  0
  1 36  1  1  0  0  0
  2  3  1  0  0  0  0
  3  4  2  0  0  0  0
  4  5  1  0  0  0  0
  4 37  1  0  0  0  0
  5  6  1  0  0  0  0
  5  7  2  0  0  0  0
  6 12  1  0  0  0  0
  7  8  1  0  0  0  0
  7 38  1  0  0  0  0
  8  9  2  0  0  0  0
  8 39  1  0  0  0  0
  9 10  1  0  0  0  0
  9  3  1  0  0  0  0
 10 11  1  0  0  0  0
 11 21  1  0  0  0  0
 11  1  1  0  0  0  0
 11 40  1  1  0  0  0
 13 14  1  0  0  0  0
 13 20  1  0  0  0  0
 14 15  2  0  0  0  0
 15 16  1  0  0  0  0
 15 41  1  0  0  0  0
 16 17  2  0  0  0  0
 16 42  1  0  0  0  0
 17  1  1  0  0  0  0
 17 18  1  0  0  0  0
 18 19  2  0  0  0  0
 18 43  1  0  0  0  0
 19 14  1  0  0  0  0
 19 44  1  0  0  0  0
 21 22  2  0  0  0  0
 22 23  1  0  0  0  0
 22 45  1  0  0  0  0
 23 24  2  0  0  0  0
 23 46  1  0  0  0  0
 24 27  1  0  0  0  0
 24 25  1  0  0  0  0
 25 26  2  0  0  0  0
 25 47  1  0  0  0  0
 26 21  1  0  0  0  0
 26 48  1  0  0  0  0
 27 28  1  0  0  0  0
 28 29  1  0  0  0  0
 28 49  1  0  0  0  0
 28 50  1  0  0  0  0
 29 30  1  0  0  0  0
 29 51  1  0  0  0  0
 29 52  1  0  0  0  0
 30 31  1  0  0  0  0
 31 32  1  0  0  0  0
 31 53  1  0  0  0  0
 31 54  1  0  0  0  0
 32 33  1  0  0  0  0
 32 55  1  0  0  0  0
 32 56  1  0  0  0  0
 33 34  1  0  0  0  0
 34 35  1  0  0  0  0
 34 57  1  0  0  0  0
 34 58  1  0  0  0  0
 35 30  1  0  0  0  0
 35 59  1  0  0  0  0
 35 60  1  0  0  0  0
M  END
>  <minimizedAffinity>
-8.01170

$$$$
CHEMBL362718
 OpenBabel01042214213D

 60 64  0  0  0  0  0  0  0  0999 V2000
   37.6492    0.3454   18.6945 C   0  0  1  0  0  0  0  0  0  0  0  0
   37.9894    2.1333   18.5636 S   0  0  0  0  0  0  0  0  0  0  0  0
   36.8767    2.4138   17.1861 C   0  0  0  0  0  0  0  0  0  0  0  0
   37.2352    3.3481   16.2066 C   0  0  0  0  0  0  0  0  0  0  0  0
   36.3555    3.6436   15.1567 C   0  0  0  0  0  0  0  0  0  0  0  0
   36.6987    4.5796   14.1838 O   0  0  0  0  0  0  0  0  0  0  0  0
   35.1184    2.9967   15.0863 C   0  0  0  0  0  0  0  0  0  0  0  0
   34.7694    2.0436   16.0467 C   0  0  0  0  0  0  0  0  0  0  0  0
   35.6506    1.7307   17.0879 C   0  0  0  0  0  0  0  0  0  0  0  0
   35.3107    0.6847   17.9569 O   0  0  0  0  0  0  0  0  0  0  0  0
   36.1373    0.1645   19.0069 C   0  0  1  0  0  0  0  0  0  0  0  0
   37.5886    5.0638   14.2055 H   0  0  0  0  0  0  0  0  0  0  0  0
   39.9251   -2.3318   14.1567 O   0  0  0  0  0  0  0  0  0  0  0  0
   39.3683   -1.6894   15.2603 C   0  0  0  0  0  0  0  0  0  0  0  0
   38.1414   -2.1245   15.7659 C   0  0  0  0  0  0  0  0  0  0  0  0
   37.5679   -1.4901   16.8716 C   0  0  0  0  0  0  0  0  0  0  0  0
   38.2188   -0.4019   17.4920 C   0  0  0  0  0  0  0  0  0  0  0  0
   39.4568    0.0218   16.9742 C   0  0  0  0  0  0  0  0  0  0  0  0
   40.0257   -0.6142   15.8678 C   0  0  0  0  0  0  0  0  0  0  0  0
   40.8135   -2.0397   13.7667 H   0  0  0  0  0  0  0  0  0  0  0  0
   35.6952   -1.2572   19.3380 C   0  0  0  0  0  0  0  0  0  0  0  0
   36.4001   -2.1001   20.2240 C   0  0  0  0  0  0  0  0  0  0  0  0
   35.9316   -3.3858   20.5073 C   0  0  0  0  0  0  0  0  0  0  0  0
   34.7471   -3.8558   19.9351 C   0  0  0  0  0  0  0  0  0  0  0  0
   34.0221   -3.0147   19.0742 C   0  0  0  0  0  0  0  0  0  0  0  0
   34.4886   -1.7289   18.7880 C   0  0  0  0  0  0  0  0  0  0  0  0
   34.3272   -5.1559   20.2485 O   0  0  0  0  0  0  0  0  0  0  0  0
   34.9349   -6.3449   19.7491 C   0  0  0  0  0  0  0  0  0  0  0  0
   34.2235   -6.8031   18.4708 C   0  0  0  0  0  0  0  0  0  0  0  0
   35.1665   -7.0032   17.3434 N   0  0  0  0  0  0  0  0  0  0  0  0
   36.0573   -5.8331   17.1233 C   0  0  0  0  0  0  0  0  0  0  0  0
   35.7160   -4.9949   15.8788 C   0  0  0  0  0  0  0  0  0  0  0  0
   33.9199   -4.7563   15.7229 S   0  0  0  0  0  0  0  0  0  0  0  0
   33.5023   -6.5289   15.5062 C   0  0  0  0  0  0  0  0  0  0  0  0
   34.5412   -7.5007   16.0978 C   0  0  0  0  0  0  0  0  0  0  0  0
   38.1614   -0.1182   19.5116 H   0  0  0  0  0  0  0  0  0  0  0  0
   38.1510    3.8210   16.2582 H   0  0  0  0  0  0  0  0  0  0  0  0
   34.4614    3.2235   14.3234 H   0  0  0  0  0  0  0  0  0  0  0  0
   33.8558    1.5673   15.9878 H   0  0  0  0  0  0  0  0  0  0  0  0
   36.0040    0.7321   19.9041 H   0  0  0  0  0  0  0  0  0  0  0  0
   37.6555   -2.9187   15.3208 H   0  0  0  0  0  0  0  0  0  0  0  0
   36.6611   -1.8200   17.2374 H   0  0  0  0  0  0  0  0  0  0  0  0
   39.9507    0.8122   17.4172 H   0  0  0  0  0  0  0  0  0  0  0  0
   40.9330   -0.2901   15.4979 H   0  0  0  0  0  0  0  0  0  0  0  0
   37.2695   -1.7638   20.6667 H   0  0  0  0  0  0  0  0  0  0  0  0
   36.4665   -3.9947   21.1462 H   0  0  0  0  0  0  0  0  0  0  0  0
   33.1415   -3.3478   18.6515 H   0  0  0  0  0  0  0  0  0  0  0  0
   33.9403   -1.1162   18.1642 H   0  0  0  0  0  0  0  0  0  0  0  0
   34.8654   -7.1153   20.4884 H   0  0  0  0  0  0  0  0  0  0  0  0
   35.9623   -6.1461   19.5261 H   0  0  0  0  0  0  0  0  0  0  0  0
   33.5056   -6.0605   18.1914 H   0  0  0  0  0  0  0  0  0  0  0  0
   33.7540   -7.7425   18.6759 H   0  0  0  0  0  0  0  0  0  0  0  0
   37.0601   -6.1916   17.0198 H   0  0  0  0  0  0  0  0  0  0  0  0
   35.9275   -5.1894   17.9681 H   0  0  0  0  0  0  0  0  0  0  0  0
   36.0785   -5.4993   15.0075 H   0  0  0  0  0  0  0  0  0  0  0  0
   36.1791   -4.0354   15.9777 H   0  0  0  0  0  0  0  0  0  0  0  0
   33.4160   -6.7274   14.4583 H   0  0  0  0  0  0  0  0  0  0  0  0
   32.5885   -6.6961   16.0371 H   0  0  0  0  0  0  0  0  0  0  0  0
   35.3107   -7.6586   15.3713 H   0  0  0  0  0  0  0  0  0  0  0  0
   34.0251   -8.4056   16.3422 H   0  0  0  0  0  0  0  0  0  0  0  0
  1  2  1  0  0  0  0
  1 36  1  1  0  0  0
  2  3  1  0  0  0  0
  3  4  2  0  0  0  0
  4  5  1  0  0  0  0
  4 37  1  0  0  0  0
  5  6  1  0  0  0  0
  5  7  2  0  0  0  0
  6 12  1  0  0  0  0
  7  8  1  0  0  0  0
  7 38  1  0  0  0  0
  8  9  2  0  0  0  0
  8 39  1  0  0  0  0
  9 10  1  0  0  0  0
  9  3  1  0  0  0  0
 10 11  1  0  0  0  0
 11 21  1  0  0  0  0
 11  1  1  0  0  0  0
 11 40  1  1  0  0  0
 13 14  1  0  0  0  0
 13 20  1  0  0  0  0
 14 15  2  0  0  0  0
 15 16  1  0  0  0  0
 15 41  1  0  0  0  0
 16 17  2  0  0  0  0
 16 42  1  0  0  0  0
 17  1  1  0  0  0  0
 17 18  1  0  0  0  0
 18 19  2  0  0  0  0
 18 43  1  0  0  0  0
 19 14  1  0  0  0  0
 19 44  1  0  0  0  0
 21 22  2  0  0  0  0
 22 23  1  0  0  0  0
 22 45  1  0  0  0  0
 23 24  2  0  0  0  0
 23 46  1  0  0  0  0
 24 27  1  0  0  0  0
 24 25  1  0  0  0  0
 25 26  2  0  0  0  0
 25 47  1  0  0  0  0
 26 21  1  0  0  0  0
 26 48  1  0  0  0  0
 27 28  1  0  0  0  0
 28 29  1  0  0  0  0
 28 49  1  0  0  0  0
 28 50  1  0  0  0  0
 29 30  1  0  0  0  0
 29 51  1  0  0  0  0
 29 52  1  0  0  0  0
 30 31  1  0  0  0  0
 31 32  1  0  0  0  0
 31 53  1  0  0  0  0
 31 54  1  0  0  0  0
 32 33  1  0  0  0  0
 32 55  1  0  0  0  0
 32 56  1  0  0  0  0
 33 34  1  0  0  0  0
 34 35  1  0  0  0  0
 34 57  1  0  0  0  0
 34 58  1  0  0  0  0
 35 30  1  0  0  0  0
 35 59  1  0  0  0  0
 35 60  1  0  0  0  0
M  END
>  <minimizedAffinity>
-8.02910

$$$$
CHEMBL362718
 OpenBabel01042214213D

 60 64  0  0  0  0  0  0  0  0999 V2000
   37.9888    0.1547   16.9893 C   0  0  1  0  0  0  0  0  0  0  0  0
   38.5051    1.6435   16.0561 S   0  0  0  0  0  0  0  0  0  0  0  0
   36.8833    2.3590   15.7116 C   0  0  0  0  0  0  0  0  0  0  0  0
   36.7947    3.2975   14.6742 C   0  0  0  0  0  0  0  0  0  0  0  0
   35.5669    3.8755   14.3389 C   0  0  0  0  0  0  0  0  0  0  0  0
   35.5054    4.8111   13.3086 O   0  0  0  0  0  0  0  0  0  0  0  0
   34.4123    3.5076   15.0386 C   0  0  0  0  0  0  0  0  0  0  0  0
   34.4871    2.5614   16.0627 C   0  0  0  0  0  0  0  0  0  0  0  0
   35.7136    1.9812   16.4061 C   0  0  0  0  0  0  0  0  0  0  0  0
   35.7229    0.9971   17.3973 O   0  0  0  0  0  0  0  0  0  0  0  0
   36.9053    0.5120   18.0237 C   0  0  1  0  0  0  0  0  0  0  0  0
   34.6308    5.2467   13.0403 H   0  0  0  0  0  0  0  0  0  0  0  0
   36.7452   -4.4569   13.8139 O   0  0  0  0  0  0  0  0  0  0  0  0
   37.0501   -3.3288   14.5720 C   0  0  0  0  0  0  0  0  0  0  0  0
   36.0703   -2.3574   14.7892 C   0  0  0  0  0  0  0  0  0  0  0  0
   36.3587   -1.2212   15.5509 C   0  0  0  0  0  0  0  0  0  0  0  0
   37.6416   -1.0349   16.1029 C   0  0  0  0  0  0  0  0  0  0  0  0
   38.6192   -2.0242   15.8793 C   0  0  0  0  0  0  0  0  0  0  0  0
   38.3265   -3.1596   15.1196 C   0  0  0  0  0  0  0  0  0  0  0  0
   37.4338   -5.1800   13.6402 H   0  0  0  0  0  0  0  0  0  0  0  0
   36.5801   -0.6653   18.9177 C   0  0  0  0  0  0  0  0  0  0  0  0
   37.6002   -1.4663   19.4615 C   0  0  0  0  0  0  0  0  0  0  0  0
   37.2891   -2.5087   20.3380 C   0  0  0  0  0  0  0  0  0  0  0  0
   35.9614   -2.7662   20.6944 C   0  0  0  0  0  0  0  0  0  0  0  0
   34.9382   -1.9615   20.1596 C   0  0  0  0  0  0  0  0  0  0  0  0
   35.2482   -0.9172   19.2839 C   0  0  0  0  0  0  0  0  0  0  0  0
   35.7036   -3.8215   21.5808 O   0  0  0  0  0  0  0  0  0  0  0  0
   35.0931   -5.0557   21.2118 C   0  0  0  0  0  0  0  0  0  0  0  0
   36.1443   -6.0193   20.6489 C   0  0  0  0  0  0  0  0  0  0  0  0
   35.7236   -6.6041   19.3538 N   0  0  0  0  0  0  0  0  0  0  0  0
   34.2485   -6.5555   19.1839 C   0  0  0  0  0  0  0  0  0  0  0  0
   33.8152   -6.7130   17.7244 C   0  0  0  0  0  0  0  0  0  0  0  0
   34.2518   -5.2392   16.7301 S   0  0  0  0  0  0  0  0  0  0  0  0
   35.7829   -4.7802   17.6231 C   0  0  0  0  0  0  0  0  0  0  0  0
   36.4784   -6.0066   18.2221 C   0  0  0  0  0  0  0  0  0  0  0  0
   38.8393   -0.1912   17.5388 H   0  0  0  0  0  0  0  0  0  0  0  0
   37.6444    3.5644   14.1528 H   0  0  0  0  0  0  0  0  0  0  0  0
   33.5048    3.9359   14.7976 H   0  0  0  0  0  0  0  0  0  0  0  0
   33.6313    2.2877   16.5704 H   0  0  0  0  0  0  0  0  0  0  0  0
   37.3055    1.2948   18.6335 H   0  0  0  0  0  0  0  0  0  0  0  0
   35.1285   -2.4791   14.3853 H   0  0  0  0  0  0  0  0  0  0  0  0
   35.6255   -0.5127   15.7103 H   0  0  0  0  0  0  0  0  0  0  0  0
   39.5626   -1.9089   16.2814 H   0  0  0  0  0  0  0  0  0  0  0  0
   39.0533   -3.8751   14.9620 H   0  0  0  0  0  0  0  0  0  0  0  0
   38.5845   -1.2829   19.2115 H   0  0  0  0  0  0  0  0  0  0  0  0
   38.0455   -3.0938   20.7259 H   0  0  0  0  0  0  0  0  0  0  0  0
   33.9550   -2.1432   20.4150 H   0  0  0  0  0  0  0  0  0  0  0  0
   34.4922   -0.3266   18.9035 H   0  0  0  0  0  0  0  0  0  0  0  0
   34.3471   -4.8722   20.4670 H   0  0  0  0  0  0  0  0  0  0  0  0
   34.6444   -5.4958   22.0778 H   0  0  0  0  0  0  0  0  0  0  0  0
   36.2987   -6.8112   21.3517 H   0  0  0  0  0  0  0  0  0  0  0  0
   37.0456   -5.4665   20.4849 H   0  0  0  0  0  0  0  0  0  0  0  0
   33.8933   -5.6136   19.5465 H   0  0  0  0  0  0  0  0  0  0  0  0
   33.8332   -7.3740   19.7339 H   0  0  0  0  0  0  0  0  0  0  0  0
   32.7550   -6.8537   17.6900 H   0  0  0  0  0  0  0  0  0  0  0  0
   34.3260   -7.5583   17.3126 H   0  0  0  0  0  0  0  0  0  0  0  0
   35.5339   -4.1025   18.4128 H   0  0  0  0  0  0  0  0  0  0  0  0
   36.4530   -4.3248   16.9242 H   0  0  0  0  0  0  0  0  0  0  0  0
   37.4453   -5.7129   18.5738 H   0  0  0  0  0  0  0  0  0  0  0  0
   36.5427   -6.7471   17.4524 H   0  0  0  0  0  0  0  0  0  0  0  0
  1  2  1  0  0  0  0
  1 36  1  1  0  0  0
  2  3  1  0  0  0  0
  3  4  2  0  0  0  0
  4  5  1  0  0  0  0
  4 37  1  0  0  0  0
  5  6  1  0  0  0  0
  5  7  2  0  0  0  0
  6 12  1  0  0  0  0
  7  8  1  0  0  0  0
  7 38  1  0  0  0  0
  8  9  2  0  0  0  0
  8 39  1  0  0  0  0
  9 10  1  0  0  0  0
  9  3  1  0  0  0  0
 10 11  1  0  0  0  0
 11 21  1  0  0  0  0
 11  1  1  0  0  0  0
 11 40  1  1  0  0  0
 13 14  1  0  0  0  0
 13 20  1  0  0  0  0
 14 15  2  0  0  0  0
 15 16  1  0  0  0  0
 15 41  1  0  0  0  0
 16 17  2  0  0  0  0
 16 42  1  0  0  0  0
 17  1  1  0  0  0  0
 17 18  1  0  0  0  0
 18 19  2  0  0  0  0
 18 43  1  0  0  0  0
 19 14  1  0  0  0  0
 19 44  1  0  0  0  0
 21 22  2  0  0  0  0
 22 23  1  0  0  0  0
 22 45  1  0  0  0  0
 23 24  2  0  0  0  0
 23 46  1  0  0  0  0
 24 27  1  0  0  0  0
 24 25  1  0  0  0  0
 25 26  2  0  0  0  0
 25 47  1  0  0  0  0
 26 21  1  0  0  0  0
 26 48  1  0  0  0  0
 27 28  1  0  0  0  0
 28 29  1  0  0  0  0
 28 49  1  0  0  0  0
 28 50  1  0  0  0  0
 29 30  1  0  0  0  0
 29 51  1  0  0  0  0
 29 52  1  0  0  0  0
 30 31  1  0  0  0  0
 31 32  1  0  0  0  0
 31 53  1  0  0  0  0
 31 54  1  0  0  0  0
 32 33  1  0  0  0  0
 32 55  1  0  0  0  0
 32 56  1  0  0  0  0
 33 34  1  0  0  0  0
 34 35  1  0  0  0  0
 34 57  1  0  0  0  0
 34 58  1  0  0  0  0
 35 30  1  0  0  0  0
 35 59  1  0  0  0  0
 35 60  1  0  0  0  0
M  END
>  <minimizedAffinity>
-8.02967

$$$$
CHEMBL362718
 OpenBabel01042214213D

 60 64  0  0  0  0  0  0  0  0999 V2000
   35.6407   -1.2612   16.9276 C   0  0  1  0  0  0  0  0  0  0  0  0
   34.4480   -2.6122   17.2136 S   0  0  0  0  0  0  0  0  0  0  0  0
   35.1969   -3.1740   18.7426 C   0  0  0  0  0  0  0  0  0  0  0  0
   35.2077   -4.5453   19.0264 C   0  0  0  0  0  0  0  0  0  0  0  0
   35.7196   -5.0103   20.2451 C   0  0  0  0  0  0  0  0  0  0  0  0
   35.7246   -6.3715   20.5409 O   0  0  0  0  0  0  0  0  0  0  0  0
   36.2263   -4.0996   21.1766 C   0  0  0  0  0  0  0  0  0  0  0  0
   36.2422   -2.7331   20.8848 C   0  0  0  0  0  0  0  0  0  0  0  0
   35.7490   -2.2634   19.6622 C   0  0  0  0  0  0  0  0  0  0  0  0
   35.8953   -0.9019   19.3635 O   0  0  0  0  0  0  0  0  0  0  0  0
   35.5446   -0.2728   18.1235 C   0  0  1  0  0  0  0  0  0  0  0  0
   35.3667   -7.0570   19.8861 H   0  0  0  0  0  0  0  0  0  0  0  0
   40.7410   -3.5396   15.6106 O   0  0  0  0  0  0  0  0  0  0  0  0
   39.5061   -2.9786   15.9280 C   0  0  0  0  0  0  0  0  0  0  0  0
   39.4361   -1.6396   16.3183 C   0  0  0  0  0  0  0  0  0  0  0  0
   38.2052   -1.0613   16.6417 C   0  0  0  0  0  0  0  0  0  0  0  0
   37.0171   -1.8210   16.5795 C   0  0  0  0  0  0  0  0  0  0  0  0
   37.1031   -3.1675   16.1798 C   0  0  0  0  0  0  0  0  0  0  0  0
   38.3357   -3.7419   15.8588 C   0  0  0  0  0  0  0  0  0  0  0  0
   40.8245   -4.5081   15.3242 H   0  0  0  0  0  0  0  0  0  0  0  0
   36.3343    1.0237   17.9757 C   0  0  0  0  0  0  0  0  0  0  0  0
   37.3889    1.3900   18.8394 C   0  0  0  0  0  0  0  0  0  0  0  0
   38.0925    2.5805   18.6383 C   0  0  0  0  0  0  0  0  0  0  0  0
   37.7797    3.4221   17.5682 C   0  0  0  0  0  0  0  0  0  0  0  0
   36.7509    3.0531   16.6853 C   0  0  0  0  0  0  0  0  0  0  0  0
   36.0447    1.8639   16.8844 C   0  0  0  0  0  0  0  0  0  0  0  0
   38.5131    4.6073   17.4178 O   0  0  0  0  0  0  0  0  0  0  0  0
   39.1128    5.3293   18.4909 C   0  0  0  0  0  0  0  0  0  0  0  0
   39.8763    6.5425   17.9476 C   0  0  0  0  0  0  0  0  0  0  0  0
   40.2389    7.5039   19.0175 N   0  0  0  0  0  0  0  0  0  0  0  0
   39.4278    7.3255   20.2510 C   0  0  0  0  0  0  0  0  0  0  0  0
   38.3684    8.4171   20.4830 C   0  0  0  0  0  0  0  0  0  0  0  0
   37.5093    8.8347   18.9354 S   0  0  0  0  0  0  0  0  0  0  0  0
   38.9862    9.4717   18.0543 C   0  0  0  0  0  0  0  0  0  0  0  0
   40.3241    8.9138   18.5763 C   0  0  0  0  0  0  0  0  0  0  0  0
   35.4094   -0.6765   16.0618 H   0  0  0  0  0  0  0  0  0  0  0  0
   34.8372   -5.2161   18.3352 H   0  0  0  0  0  0  0  0  0  0  0  0
   36.5894   -4.4371   22.0817 H   0  0  0  0  0  0  0  0  0  0  0  0
   36.6201   -2.0659   21.5754 H   0  0  0  0  0  0  0  0  0  0  0  0
   34.5122    0.0085   18.1254 H   0  0  0  0  0  0  0  0  0  0  0  0
   40.2978   -1.0739   16.3683 H   0  0  0  0  0  0  0  0  0  0  0  0
   38.1648   -0.0707   16.9283 H   0  0  0  0  0  0  0  0  0  0  0  0
   36.2450   -3.7379   16.1230 H   0  0  0  0  0  0  0  0  0  0  0  0
   38.3829   -4.7315   15.5700 H   0  0  0  0  0  0  0  0  0  0  0  0
   37.6427    0.7729   19.6267 H   0  0  0  0  0  0  0  0  0  0  0  0
   38.8514    2.8407   19.2874 H   0  0  0  0  0  0  0  0  0  0  0  0
   36.5159    3.6628   15.8865 H   0  0  0  0  0  0  0  0  0  0  0  0
   35.2999    1.5978   16.2215 H   0  0  0  0  0  0  0  0  0  0  0  0
   39.7922    4.6882   19.0127 H   0  0  0  0  0  0  0  0  0  0  0  0
   38.3467    5.6672   19.1571 H   0  0  0  0  0  0  0  0  0  0  0  0
   39.2611    7.0429   17.2292 H   0  0  0  0  0  0  0  0  0  0  0  0
   40.7834    6.1874   17.5050 H   0  0  0  0  0  0  0  0  0  0  0  0
   40.0921    7.3212   21.0898 H   0  0  0  0  0  0  0  0  0  0  0  0
   38.8949    6.4051   20.1337 H   0  0  0  0  0  0  0  0  0  0  0  0
   38.8481    9.2943   20.8641 H   0  0  0  0  0  0  0  0  0  0  0  0
   37.6480    8.0484   21.1829 H   0  0  0  0  0  0  0  0  0  0  0  0
   39.0043   10.5367   18.1565 H   0  0  0  0  0  0  0  0  0  0  0  0
   38.8973    9.1537   17.0365 H   0  0  0  0  0  0  0  0  0  0  0  0
   40.6402    9.5107   19.4062 H   0  0  0  0  0  0  0  0  0  0  0  0
   41.0204    8.9500   17.7647 H   0  0  0  0  0  0  0  0  0  0  0  0
  1  2  1  0  0  0  0
  1 36  1  6  0  0  0
  2  3  1  0  0  0  0
  3  4  2  0  0  0  0
  4  5  1  0  0  0  0
  4 37  1  0  0  0  0
  5  6  1  0  0  0  0
  5  7  2  0  0  0  0
  6 12  1  0  0  0  0
  7  8  1  0  0  0  0
  7 38  1  0  0  0  0
  8  9  2  0  0  0  0
  8 39  1  0  0  0  0
  9 10  1  0  0  0  0
  9  3  1  0  0  0  0
 10 11  1  0  0  0  0
 11 21  1  0  0  0  0
 11  1  1  0  0  0  0
 11 40  1  1  0  0  0
 13 14  1  0  0  0  0
 13 20  1  0  0  0  0
 14 15  2  0  0  0  0
 15 16  1  0  0  0  0
 15 41  1  0  0  0  0
 16 17  2  0  0  0  0
 16 42  1  0  0  0  0
 17  1  1  0  0  0  0
 17 18  1  0  0  0  0
 18 19  2  0  0  0  0
 18 43  1  0  0  0  0
 19 14  1  0  0  0  0
 19 44  1  0  0  0  0
 21 22  2  0  0  0  0
 22 23  1  0  0  0  0
 22 45  1  0  0  0  0
 23 24  2  0  0  0  0
 23 46  1  0  0  0  0
 24 27  1  0  0  0  0
 24 25  1  0  0  0  0
 25 26  2  0  0  0  0
 25 47  1  0  0  0  0
 26 21  1  0  0  0  0
 26 48  1  0  0  0  0
 27 28  1  0  0  0  0
 28 29  1  0  0  0  0
 28 49  1  0  0  0  0
 28 50  1  0  0  0  0
 29 30  1  0  0  0  0
 29 51  1  0  0  0  0
 29 52  1  0  0  0  0
 30 31  1  0  0  0  0
 31 32  1  0  0  0  0
 31 53  1  0  0  0  0
 31 54  1  0  0  0  0
 32 33  1  0  0  0  0
 32 55  1  0  0  0  0
 32 56  1  0  0  0  0
 33 34  1  0  0  0  0
 34 35  1  0  0  0  0
 34 57  1  0  0  0  0
 34 58  1  0  0  0  0
 35 30  1  0  0  0  0
 35 59  1  0  0  0  0
 35 60  1  0  0  0  0
M  END
>  <minimizedAffinity>
-8.07774

$$$$
CHEMBL362718
 OpenBabel01042214213D

 60 64  0  0  0  0  0  0  0  0999 V2000
   37.8266   -0.9265   17.0976 C   0  0  1  0  0  0  0  0  0  0  0  0
   38.6518    0.2634   15.9765 S   0  0  0  0  0  0  0  0  0  0  0  0
   37.2463    1.3250   15.5785 C   0  0  0  0  0  0  0  0  0  0  0  0
   37.3434    2.1292   14.4346 C   0  0  0  0  0  0  0  0  0  0  0  0
   36.2846    2.9592   14.0549 C   0  0  0  0  0  0  0  0  0  0  0  0
   36.4075    3.7545   12.9178 O   0  0  0  0  0  0  0  0  0  0  0  0
   35.1120    2.9816   14.8181 C   0  0  0  0  0  0  0  0  0  0  0  0
   34.9990    2.1720   15.9501 C   0  0  0  0  0  0  0  0  0  0  0  0
   36.0563    1.3411   16.3381 C   0  0  0  0  0  0  0  0  0  0  0  0
   35.8688    0.5081   17.4434 O   0  0  0  0  0  0  0  0  0  0  0  0
   36.9219   -0.1878   18.1012 C   0  0  1  0  0  0  0  0  0  0  0  0
   35.6578    4.3654   12.6152 H   0  0  0  0  0  0  0  0  0  0  0  0
   35.4082   -5.2482   14.2043 O   0  0  0  0  0  0  0  0  0  0  0  0
   35.9817   -4.1958   14.9141 C   0  0  0  0  0  0  0  0  0  0  0  0
   36.4434   -4.4107   16.2146 C   0  0  0  0  0  0  0  0  0  0  0  0
   37.0252   -3.3663   16.9392 C   0  0  0  0  0  0  0  0  0  0  0  0
   37.1469   -2.0817   16.3731 C   0  0  0  0  0  0  0  0  0  0  0  0
   36.6807   -1.8799   15.0592 C   0  0  0  0  0  0  0  0  0  0  0  0
   36.1021   -2.9268   14.3372 C   0  0  0  0  0  0  0  0  0  0  0  0
   35.0656   -5.1244   13.2585 H   0  0  0  0  0  0  0  0  0  0  0  0
   36.3575   -1.1319   19.1409 C   0  0  0  0  0  0  0  0  0  0  0  0
   34.9701   -1.3222   19.2706 C   0  0  0  0  0  0  0  0  0  0  0  0
   34.4660   -2.2461   20.1893 C   0  0  0  0  0  0  0  0  0  0  0  0
   35.3319   -3.0011   20.9870 C   0  0  0  0  0  0  0  0  0  0  0  0
   36.7212   -2.8204   20.8542 C   0  0  0  0  0  0  0  0  0  0  0  0
   37.2270   -1.8976   19.9343 C   0  0  0  0  0  0  0  0  0  0  0  0
   34.7748   -3.9175   21.8900 O   0  0  0  0  0  0  0  0  0  0  0  0
   33.4837   -4.5057   21.7509 C   0  0  0  0  0  0  0  0  0  0  0  0
   32.6318   -4.2133   22.9915 C   0  0  0  0  0  0  0  0  0  0  0  0
   32.9826   -2.9136   23.6114 N   0  0  0  0  0  0  0  0  0  0  0  0
   31.8811   -1.9261   23.4748 C   0  0  0  0  0  0  0  0  0  0  0  0
   32.0008   -0.7651   24.4648 C   0  0  0  0  0  0  0  0  0  0  0  0
   31.6680   -1.3075   26.1813 S   0  0  0  0  0  0  0  0  0  0  0  0
   32.3280   -3.0093   26.0379 C   0  0  0  0  0  0  0  0  0  0  0  0
   33.4584   -3.0932   25.0074 C   0  0  0  0  0  0  0  0  0  0  0  0
   38.5900   -1.4126   17.6685 H   0  0  0  0  0  0  0  0  0  0  0  0
   38.2051    2.1084   13.8671 H   0  0  0  0  0  0  0  0  0  0  0  0
   34.3301    3.5969   14.5441 H   0  0  0  0  0  0  0  0  0  0  0  0
   34.1290    2.1864   16.5050 H   0  0  0  0  0  0  0  0  0  0  0  0
   37.5366    0.5314   18.6009 H   0  0  0  0  0  0  0  0  0  0  0  0
   36.3546   -5.3454   16.6429 H   0  0  0  0  0  0  0  0  0  0  0  0
   37.3686   -3.5377   17.8972 H   0  0  0  0  0  0  0  0  0  0  0  0
   36.7676   -0.9478   14.6248 H   0  0  0  0  0  0  0  0  0  0  0  0
   35.7628   -2.7637   13.3763 H   0  0  0  0  0  0  0  0  0  0  0  0
   34.3204   -0.7760   18.6835 H   0  0  0  0  0  0  0  0  0  0  0  0
   33.4458   -2.3726   20.2801 H   0  0  0  0  0  0  0  0  0  0  0  0
   37.3692   -3.3715   21.4384 H   0  0  0  0  0  0  0  0  0  0  0  0
   38.2475   -1.7781   19.8374 H   0  0  0  0  0  0  0  0  0  0  0  0
   33.5882   -5.5643   21.6355 H   0  0  0  0  0  0  0  0  0  0  0  0
   33.0017   -4.0901   20.8907 H   0  0  0  0  0  0  0  0  0  0  0  0
   32.7877   -4.9916   23.7090 H   0  0  0  0  0  0  0  0  0  0  0  0
   31.6073   -4.1683   22.6861 H   0  0  0  0  0  0  0  0  0  0  0  0
   30.9505   -2.4260   23.6448 H   0  0  0  0  0  0  0  0  0  0  0  0
   31.9362   -1.5158   22.4881 H   0  0  0  0  0  0  0  0  0  0  0  0
   31.2954   -0.0063   24.1973 H   0  0  0  0  0  0  0  0  0  0  0  0
   33.0014   -0.3888   24.4204 H   0  0  0  0  0  0  0  0  0  0  0  0
   31.5365   -3.6642   25.7386 H   0  0  0  0  0  0  0  0  0  0  0  0
   32.7228   -3.2955   26.9903 H   0  0  0  0  0  0  0  0  0  0  0  0
   33.9239   -4.0532   25.0886 H   0  0  0  0  0  0  0  0  0  0  0  0
   34.1441   -2.2992   25.2176 H   0  0  0  0  0  0  0  0  0  0  0  0
  1  2  1  0  0  0  0
  1 36  1  1  0  0  0
  2  3  1  0  0  0  0
  3  4  2  0  0  0  0
  4  5  1  0  0  0  0
  4 37  1  0  0  0  0
  5  6  1  0  0  0  0
  5  7  2  0  0  0  0
  6 12  1  0  0  0  0
  7  8  1  0  0  0  0
  7 38  1  0  0  0  0
  8  9  2  0  0  0  0
  8 39  1  0  0  0  0
  9 10  1  0  0  0  0
  9  3  1  0  0  0  0
 10 11  1  0  0  0  0
 11 21  1  0  0  0  0
 11  1  1  0  0  0  0
 11 40  1  1  0  0  0
 13 14  1  0  0  0  0
 13 20  1  0  0  0  0
 14 15  2  0  0  0  0
 15 16  1  0  0  0  0
 15 41  1  0  0  0  0
 16 17  2  0  0  0  0
 16 42  1  0  0  0  0
 17  1  1  0  0  0  0
 17 18  1  0  0  0  0
 18 19  2  0  0  0  0
 18 43  1  0  0  0  0
 19 14  1  0  0  0  0
 19 44  1  0  0  0  0
 21 22  2  0  0  0  0
 22 23  1  0  0  0  0
 22 45  1  0  0  0  0
 23 24  2  0  0  0  0
 23 46  1  0  0  0  0
 24 27  1  0  0  0  0
 24 25  1  0  0  0  0
 25 26  2  0  0  0  0
 25 47  1  0  0  0  0
 26 21  1  0  0  0  0
 26 48  1  0  0  0  0
 27 28  1  0  0  0  0
 28 29  1  0  0  0  0
 28 49  1  0  0  0  0
 28 50  1  0  0  0  0
 29 30  1  0  0  0  0
 29 51  1  0  0  0  0
 29 52  1  0  0  0  0
 30 31  1  0  0  0  0
 31 32  1  0  0  0  0
 31 53  1  0  0  0  0
 31 54  1  0  0  0  0
 32 33  1  0  0  0  0
 32 55  1  0  0  0  0
 32 56  1  0  0  0  0
 33 34  1  0  0  0  0
 34 35  1  0  0  0  0
 34 57  1  0  0  0  0
 34 58  1  0  0  0  0
 35 30  1  0  0  0  0
 35 59  1  0  0  0  0
 35 60  1  0  0  0  0
M  END
>  <minimizedAffinity>
-8.08041

$$$$
CHEMBL362718
 OpenBabel01042214213D

 60 64  0  0  0  0  0  0  0  0999 V2000
   33.6782   -4.5417   20.5336 C   0  0  1  0  0  0  0  0  0  0  0  0
   34.9627   -5.3585   19.5275 S   0  0  0  0  0  0  0  0  0  0  0  0
   35.8053   -3.8431   19.0717 C   0  0  0  0  0  0  0  0  0  0  0  0
   36.3646   -3.7389   17.7921 C   0  0  0  0  0  0  0  0  0  0  0  0
   37.0921   -2.5973   17.4301 C   0  0  0  0  0  0  0  0  0  0  0  0
   37.6614   -2.4893   16.1634 O   0  0  0  0  0  0  0  0  0  0  0  0
   37.2531   -1.5575   18.3501 C   0  0  0  0  0  0  0  0  0  0  0  0
   36.6727   -1.6465   19.6182 C   0  0  0  0  0  0  0  0  0  0  0  0
   35.9299   -2.7760   19.9802 C   0  0  0  0  0  0  0  0  0  0  0  0
   35.2666   -2.7697   21.2149 O   0  0  0  0  0  0  0  0  0  0  0  0
   34.3833   -3.7909   21.6978 C   0  0  1  0  0  0  0  0  0  0  0  0
   37.5609   -3.2245   15.4732 H   0  0  0  0  0  0  0  0  0  0  0  0
   29.9526   -1.6179   17.2918 O   0  0  0  0  0  0  0  0  0  0  0  0
   30.8633   -2.3218   18.0763 C   0  0  0  0  0  0  0  0  0  0  0  0
   32.2233   -2.2788   17.7620 C   0  0  0  0  0  0  0  0  0  0  0  0
   33.1503   -2.9805   18.5380 C   0  0  0  0  0  0  0  0  0  0  0  0
   32.7263   -3.7424   19.6482 C   0  0  0  0  0  0  0  0  0  0  0  0
   31.3533   -3.7720   19.9553 C   0  0  0  0  0  0  0  0  0  0  0  0
   30.4299   -3.0702   19.1761 C   0  0  0  0  0  0  0  0  0  0  0  0
   28.9597   -1.6294   17.4940 H   0  0  0  0  0  0  0  0  0  0  0  0
   33.4609   -3.1986   22.7583 C   0  0  0  0  0  0  0  0  0  0  0  0
   32.7373   -2.0010   22.5728 C   0  0  0  0  0  0  0  0  0  0  0  0
   31.8878   -1.5206   23.5730 C   0  0  0  0  0  0  0  0  0  0  0  0
   31.7226   -2.2251   24.7679 C   0  0  0  0  0  0  0  0  0  0  0  0
   32.4159   -3.4333   24.9515 C   0  0  0  0  0  0  0  0  0  0  0  0
   33.2670   -3.9157   23.9538 C   0  0  0  0  0  0  0  0  0  0  0  0
   30.8634   -1.6938   25.7398 O   0  0  0  0  0  0  0  0  0  0  0  0
   31.0572   -1.8194   27.1466 C   0  0  0  0  0  0  0  0  0  0  0  0
   32.5415   -1.6512   27.4910 C   0  0  0  0  0  0  0  0  0  0  0  0
   32.7558   -0.6917   28.6017 N   0  0  0  0  0  0  0  0  0  0  0  0
   31.5869    0.1997   28.8261 C   0  0  0  0  0  0  0  0  0  0  0  0
   31.7899    1.6507   28.3559 C   0  0  0  0  0  0  0  0  0  0  0  0
   32.6213    1.7046   26.7393 S   0  0  0  0  0  0  0  0  0  0  0  0
   34.1861    0.9258   27.2949 C   0  0  0  0  0  0  0  0  0  0  0  0
   34.0418    0.0383   28.5460 C   0  0  0  0  0  0  0  0  0  0  0  0
   33.0160   -5.2353   21.0082 H   0  0  0  0  0  0  0  0  0  0  0  0
   36.2405   -4.5060   17.1130 H   0  0  0  0  0  0  0  0  0  0  0  0
   37.8017   -0.7223   18.0924 H   0  0  0  0  0  0  0  0  0  0  0  0
   36.7926   -0.8742   20.2922 H   0  0  0  0  0  0  0  0  0  0  0  0
   34.9375   -4.5645   22.1869 H   0  0  0  0  0  0  0  0  0  0  0  0
   32.5457   -1.7259   16.9524 H   0  0  0  0  0  0  0  0  0  0  0  0
   34.1531   -2.9412   18.2973 H   0  0  0  0  0  0  0  0  0  0  0  0
   31.0243   -4.3189   20.7662 H   0  0  0  0  0  0  0  0  0  0  0  0
   29.4259   -3.1040   19.4124 H   0  0  0  0  0  0  0  0  0  0  0  0
   32.8365   -1.4753   21.6903 H   0  0  0  0  0  0  0  0  0  0  0  0
   31.3770   -0.6358   23.4273 H   0  0  0  0  0  0  0  0  0  0  0  0
   32.2960   -3.9666   25.8268 H   0  0  0  0  0  0  0  0  0  0  0  0
   33.7606   -4.8108   24.0956 H   0  0  0  0  0  0  0  0  0  0  0  0
   30.7276   -2.7865   27.4643 H   0  0  0  0  0  0  0  0  0  0  0  0
   30.4934   -1.0600   27.6470 H   0  0  0  0  0  0  0  0  0  0  0  0
   33.0578   -1.2951   26.6241 H   0  0  0  0  0  0  0  0  0  0  0  0
   32.9151   -2.6037   27.8042 H   0  0  0  0  0  0  0  0  0  0  0  0
   31.3750    0.2150   29.8748 H   0  0  0  0  0  0  0  0  0  0  0  0
   30.7840   -0.1994   28.2422 H   0  0  0  0  0  0  0  0  0  0  0  0
   32.3888    2.1704   29.0744 H   0  0  0  0  0  0  0  0  0  0  0  0
   30.8304    2.1144   28.2603 H   0  0  0  0  0  0  0  0  0  0  0  0
   34.8881    1.7030   27.5142 H   0  0  0  0  0  0  0  0  0  0  0  0
   34.5096    0.2862   26.5005 H   0  0  0  0  0  0  0  0  0  0  0  0
   34.1171    0.6599   29.4137 H   0  0  0  0  0  0  0  0  0  0  0  0
   34.8203   -0.6946   28.5057 H   0  0  0  0  0  0  0  0  0  0  0  0
  1  2  1  0  0  0  0
  1 36  1  1  0  0  0
  2  3  1  0  0  0  0
  3  4  2  0  0  0  0
  4  5  1  0  0  0  0
  4 37  1  0  0  0  0
  5  6  1  0  0  0  0
  5  7  2  0  0  0  0
  6 12  1  0  0  0  0
  7  8  1  0  0  0  0
  7 38  1  0  0  0  0
  8  9  2  0  0  0  0
  8 39  1  0  0  0  0
  9 10  1  0  0  0  0
  9  3  1  0  0  0  0
 10 11  1  0  0  0  0
 11 21  1  0  0  0  0
 11  1  1  0  0  0  0
 11 40  1  1  0  0  0
 13 14  1  0  0  0  0
 13 20  1  0  0  0  0
 14 15  2  0  0  0  0
 15 16  1  0  0  0  0
 15 41  1  0  0  0  0
 16 17  2  0  0  0  0
 16 42  1  0  0  0  0
 17  1  1  0  0  0  0
 17 18  1  0  0  0  0
 18 19  2  0  0  0  0
 18 43  1  0  0  0  0
 19 14  1  0  0  0  0
 19 44  1  0  0  0  0
 21 22  2  0  0  0  0
 22 23  1  0  0  0  0
 22 45  1  0  0  0  0
 23 24  2  0  0  0  0
 23 46  1  0  0  0  0
 24 27  1  0  0  0  0
 24 25  1  0  0  0  0
 25 26  2  0  0  0  0
 25 47  1  0  0  0  0
 26 21  1  0  0  0  0
 26 48  1  0  0  0  0
 27 28  1  0  0  0  0
 28 29  1  0  0  0  0
 28 49  1  0  0  0  0
 28 50  1  0  0  0  0
 29 30  1  0  0  0  0
 29 51  1  0  0  0  0
 29 52  1  0  0  0  0
 30 31  1  0  0  0  0
 31 32  1  0  0  0  0
 31 53  1  0  0  0  0
 31 54  1  0  0  0  0
 32 33  1  0  0  0  0
 32 55  1  0  0  0  0
 32 56  1  0  0  0  0
 33 34  1  0  0  0  0
 34 35  1  0  0  0  0
 34 57  1  0  0  0  0
 34 58  1  0  0  0  0
 35 30  1  0  0  0  0
 35 59  1  0  0  0  0
 35 60  1  0  0  0  0
M  END
>  <minimizedAffinity>
-8.11524

$$$$
CHEMBL185114
 OpenBabel01042214213D

 60 64  0  0  0  0  0  0  0  0999 V2000
   37.0501   -4.1229   18.8781 C   0  0  1  0  0  0  0  0  0  0  0  0
   38.5651   -4.0157   17.8616 S   0  0  0  0  0  0  0  0  0  0  0  0
   38.6083   -2.2361   17.6104 C   0  0  0  0  0  0  0  0  0  0  0  0
   39.2852   -1.7491   16.4841 C   0  0  0  0  0  0  0  0  0  0  0  0
   39.3944   -0.3702   16.2592 C   0  0  0  0  0  0  0  0  0  0  0  0
   40.0643    0.1188   15.1379 O   0  0  0  0  0  0  0  0  0  0  0  0
   38.8287    0.5259   17.1684 C   0  0  0  0  0  0  0  0  0  0  0  0
   38.1191    0.0488   18.2749 C   0  0  0  0  0  0  0  0  0  0  0  0
   37.9967   -1.3280   18.4989 C   0  0  0  0  0  0  0  0  0  0  0  0
   37.1928   -1.7504   19.5595 O   0  0  0  0  0  0  0  0  0  0  0  0
   37.0762   -3.0912   20.0257 C   0  0  1  0  0  0  0  0  0  0  0  0
   40.5117   -0.5067   14.4729 H   0  0  0  0  0  0  0  0  0  0  0  0
   32.1231   -4.2511   15.9436 O   0  0  0  0  0  0  0  0  0  0  0  0
   33.3227   -4.2203   16.6512 C   0  0  0  0  0  0  0  0  0  0  0  0
   33.6281   -5.2186   17.5821 C   0  0  0  0  0  0  0  0  0  0  0  0
   34.8363   -5.1838   18.2802 C   0  0  0  0  0  0  0  0  0  0  0  0
   35.7657   -4.1488   18.0579 C   0  0  0  0  0  0  0  0  0  0  0  0
   35.4425   -3.1431   17.1263 C   0  0  0  0  0  0  0  0  0  0  0  0
   34.2308   -3.1836   16.4265 C   0  0  0  0  0  0  0  0  0  0  0  0
   31.4414   -4.9869   16.0973 H   0  0  0  0  0  0  0  0  0  0  0  0
   35.8521   -3.2223   20.9094 C   0  0  0  0  0  0  0  0  0  0  0  0
   34.6954   -2.4642   20.6502 C   0  0  0  0  0  0  0  0  0  0  0  0
   33.5696   -2.5918   21.4639 C   0  0  0  0  0  0  0  0  0  0  0  0
   33.5652   -3.5031   22.5364 C   0  0  0  0  0  0  0  0  0  0  0  0
   34.6977   -4.2993   22.7576 C   0  0  0  0  0  0  0  0  0  0  0  0
   35.8330   -4.1619   21.9550 C   0  0  0  0  0  0  0  0  0  0  0  0
   32.4641   -3.6543   23.3969 O   0  0  0  0  0  0  0  0  0  0  0  0
   32.4928   -3.4954   24.8165 C   0  0  0  0  0  0  0  0  0  0  0  0
   31.9655   -2.0938   25.2041 C   0  0  0  0  0  0  0  0  0  0  0  0
   31.3638   -2.0041   26.5561 N   0  0  0  0  0  0  0  0  0  0  0  0
   31.6195   -0.7282   27.2458 C   0  0  0  0  0  0  0  0  0  0  0  0
   30.3123   -0.2754   27.8815 C   0  0  0  0  0  0  0  0  0  0  0  0
   29.2301   -1.0090   27.1161 C   0  0  1  0  0  0  0  0  0  0  0  0
   28.8096   -0.2255   26.0286 O   0  0  0  0  0  0  0  0  0  0  0  0
   29.9184   -2.2761   26.6193 C   0  0  0  0  0  0  0  0  0  0  0  0
   27.9111   -0.5609   25.7796 H   0  0  0  0  0  0  0  0  0  0  0  0
   37.0458   -5.0822   19.3520 H   0  0  0  0  0  0  0  0  0  0  0  0
   39.7069   -2.4116   15.8146 H   0  0  0  0  0  0  0  0  0  0  0  0
   38.9345    1.5422   17.0235 H   0  0  0  0  0  0  0  0  0  0  0  0
   37.6828    0.7157   18.9306 H   0  0  0  0  0  0  0  0  0  0  0  0
   37.9516   -3.3109   20.6005 H   0  0  0  0  0  0  0  0  0  0  0  0
   32.9574   -5.9840   17.7535 H   0  0  0  0  0  0  0  0  0  0  0  0
   35.0510   -5.9241   18.9664 H   0  0  0  0  0  0  0  0  0  0  0  0
   36.1047   -2.3697   16.9582 H   0  0  0  0  0  0  0  0  0  0  0  0
   34.0078   -2.4444   15.7418 H   0  0  0  0  0  0  0  0  0  0  0  0
   34.6798   -1.8094   19.8527 H   0  0  0  0  0  0  0  0  0  0  0  0
   32.7347   -2.0143   21.2783 H   0  0  0  0  0  0  0  0  0  0  0  0
   34.6927   -4.9938   23.5209 H   0  0  0  0  0  0  0  0  0  0  0  0
   36.6609   -4.7525   22.1304 H   0  0  0  0  0  0  0  0  0  0  0  0
   33.4987   -3.6041   25.1647 H   0  0  0  0  0  0  0  0  0  0  0  0
   31.8702   -4.2408   25.2655 H   0  0  0  0  0  0  0  0  0  0  0  0
   31.2213   -1.8096   24.4898 H   0  0  0  0  0  0  0  0  0  0  0  0
   32.8163   -1.4449   25.2111 H   0  0  0  0  0  0  0  0  0  0  0  0
   31.9560    0.0050   26.5429 H   0  0  0  0  0  0  0  0  0  0  0  0
   32.3764   -0.8508   27.9921 H   0  0  0  0  0  0  0  0  0  0  0  0
   30.1922    0.7831   27.7814 H   0  0  0  0  0  0  0  0  0  0  0  0
   30.2793   -0.4895   28.9293 H   0  0  0  0  0  0  0  0  0  0  0  0
   28.3652   -1.2198   27.7098 H   0  0  0  0  0  0  0  0  0  0  0  0
   29.5528   -2.5322   25.6469 H   0  0  0  0  0  0  0  0  0  0  0  0
   29.7193   -3.0944   27.2793 H   0  0  0  0  0  0  0  0  0  0  0  0
  1  2  1  0  0  0  0
  1 37  1  1  0  0  0
  2  3  1  0  0  0  0
  3  4  2  0  0  0  0
  4  5  1  0  0  0  0
  4 38  1  0  0  0  0
  5  6  1  0  0  0  0
  5  7  2  0  0  0  0
  6 12  1  0  0  0  0
  7  8  1  0  0  0  0
  7 39  1  0  0  0  0
  8  9  2  0  0  0  0
  8 40  1  0  0  0  0
  9 10  1  0  0  0  0
  9  3  1  0  0  0  0
 10 11  1  0  0  0  0
 11 21  1  0  0  0  0
 11  1  1  0  0  0  0
 11 41  1  1  0  0  0
 13 14  1  0  0  0  0
 13 20  1  0  0  0  0
 14 15  2  0  0  0  0
 15 16  1  0  0  0  0
 15 42  1  0  0  0  0
 16 17  2  0  0  0  0
 16 43  1  0  0  0  0
 17  1  1  0  0  0  0
 17 18  1  0  0  0  0
 18 19  2  0  0  0  0
 18 44  1  0  0  0  0
 19 14  1  0  0  0  0
 19 45  1  0  0  0  0
 21 22  2  0  0  0  0
 22 23  1  0  0  0  0
 22 46  1  0  0  0  0
 23 24  2  0  0  0  0
 23 47  1  0  0  0  0
 24 27  1  0  0  0  0
 24 25  1  0  0  0  0
 25 26  2  0  0  0  0
 25 48  1  0  0  0  0
 26 21  1  0  0  0  0
 26 49  1  0  0  0  0
 27 28  1  0  0  0  0
 28 29  1  0  0  0  0
 28 50  1  0  0  0  0
 28 51  1  0  0  0  0
 29 30  1  0  0  0  0
 29 52  1  0  0  0  0
 29 53  1  0  0  0  0
 30 31  1  0  0  0  0
 31 32  1  0  0  0  0
 31 54  1  0  0  0  0
 31 55  1  0  0  0  0
 32 33  1  0  0  0  0
 32 56  1  0  0  0  0
 32 57  1  0  0  0  0
 33 34  1  0  0  0  0
 33 35  1  0  0  0  0
 33 58  1  1  0  0  0
 34 36  1  0  0  0  0
 35 30  1  0  0  0  0
 35 59  1  0  0  0  0
 35 60  1  0  0  0  0
M  END
>  <minimizedAffinity>
-8.17652

$$$$
CHEMBL185114
 OpenBabel01042214213D

 60 64  0  0  0  0  0  0  0  0999 V2000
   35.3560   -1.6645   16.4719 C   0  0  1  0  0  0  0  0  0  0  0  0
   34.2032   -3.0787   16.3657 S   0  0  0  0  0  0  0  0  0  0  0  0
   34.3420   -3.6803   18.0542 C   0  0  0  0  0  0  0  0  0  0  0  0
   34.0452   -5.0283   18.2965 C   0  0  0  0  0  0  0  0  0  0  0  0
   34.0891   -5.5448   19.5985 C   0  0  0  0  0  0  0  0  0  0  0  0
   33.7978   -6.8866   19.8437 O   0  0  0  0  0  0  0  0  0  0  0  0
   34.4257   -4.7075   20.6638 C   0  0  0  0  0  0  0  0  0  0  0  0
   34.7598   -3.3704   20.4272 C   0  0  0  0  0  0  0  0  0  0  0  0
   34.7291   -2.8512   19.1270 C   0  0  0  0  0  0  0  0  0  0  0  0
   35.1699   -1.5405   18.9342 O   0  0  0  0  0  0  0  0  0  0  0  0
   35.0667   -0.8036   17.7198 C   0  0  1  0  0  0  0  0  0  0  0  0
   33.5213   -7.5148   19.0937 H   0  0  0  0  0  0  0  0  0  0  0  0
   40.8023   -3.2964   15.7117 O   0  0  0  0  0  0  0  0  0  0  0  0
   39.4814   -2.8948   15.8983 C   0  0  0  0  0  0  0  0  0  0  0  0
   38.6437   -3.5845   16.7809 C   0  0  0  0  0  0  0  0  0  0  0  0
   37.3241   -3.1695   16.9675 C   0  0  0  0  0  0  0  0  0  0  0  0
   36.8168   -2.0523   16.2754 C   0  0  0  0  0  0  0  0  0  0  0  0
   37.6663   -1.3724   15.3810 C   0  0  0  0  0  0  0  0  0  0  0  0
   38.9898   -1.7905   15.1991 C   0  0  0  0  0  0  0  0  0  0  0  0
   41.1798   -4.1026   16.1987 H   0  0  0  0  0  0  0  0  0  0  0  0
   35.9777    0.4061   17.7749 C   0  0  0  0  0  0  0  0  0  0  0  0
   35.8155    1.4686   16.8669 C   0  0  0  0  0  0  0  0  0  0  0  0
   36.6537    2.5821   16.9246 C   0  0  0  0  0  0  0  0  0  0  0  0
   37.6532    2.6711   17.9115 C   0  0  0  0  0  0  0  0  0  0  0  0
   37.7756    1.6381   18.8513 C   0  0  0  0  0  0  0  0  0  0  0  0
   36.9487    0.5138   18.7860 C   0  0  0  0  0  0  0  0  0  0  0  0
   38.5356    3.7618   17.9993 O   0  0  0  0  0  0  0  0  0  0  0  0
   38.9680    4.5692   16.9028 C   0  0  0  0  0  0  0  0  0  0  0  0
   38.1449    5.8778   16.8505 C   0  0  0  0  0  0  0  0  0  0  0  0
   38.7784    7.0418   17.5152 N   0  0  0  0  0  0  0  0  0  0  0  0
   38.0697    7.5071   18.7194 C   0  0  0  0  0  0  0  0  0  0  0  0
   39.1124    7.7738   19.7963 C   0  0  0  0  0  0  0  0  0  0  0  0
   40.3245    6.9684   19.3754 C   0  0  1  0  0  0  0  0  0  0  0  0
   40.2619    5.6885   19.9510 O   0  0  0  0  0  0  0  0  0  0  0  0
   40.1998    6.8719   17.8585 C   0  0  0  0  0  0  0  0  0  0  0  0
   41.1886    5.3380   19.9431 H   0  0  0  0  0  0  0  0  0  0  0  0
   35.1665   -1.0289   15.6322 H   0  0  0  0  0  0  0  0  0  0  0  0
   33.7921   -5.6459   17.5094 H   0  0  0  0  0  0  0  0  0  0  0  0
   34.4279   -5.0761   21.6277 H   0  0  0  0  0  0  0  0  0  0  0  0
   35.0307   -2.7624   21.2158 H   0  0  0  0  0  0  0  0  0  0  0  0
   34.0521   -0.4773   17.6250 H   0  0  0  0  0  0  0  0  0  0  0  0
   39.0027   -4.4034   17.2962 H   0  0  0  0  0  0  0  0  0  0  0  0
   36.7136   -3.6866   17.6194 H   0  0  0  0  0  0  0  0  0  0  0  0
   37.3099   -0.5590   14.8553 H   0  0  0  0  0  0  0  0  0  0  0  0
   39.6047   -1.2806   14.5457 H   0  0  0  0  0  0  0  0  0  0  0  0
   35.0713    1.4238   16.1533 H   0  0  0  0  0  0  0  0  0  0  0  0
   36.5402    3.3454   16.2394 H   0  0  0  0  0  0  0  0  0  0  0  0
   38.4836    1.7088   19.5988 H   0  0  0  0  0  0  0  0  0  0  0  0
   37.0511   -0.2406   19.4827 H   0  0  0  0  0  0  0  0  0  0  0  0
   38.8318    4.0285   15.9896 H   0  0  0  0  0  0  0  0  0  0  0  0
   40.0024    4.8106   17.0316 H   0  0  0  0  0  0  0  0  0  0  0  0
   37.2028    5.6968   17.3244 H   0  0  0  0  0  0  0  0  0  0  0  0
   38.0566    6.1351   15.8157 H   0  0  0  0  0  0  0  0  0  0  0  0
   37.3855    6.7551   19.0529 H   0  0  0  0  0  0  0  0  0  0  0  0
   37.5143    8.3967   18.5071 H   0  0  0  0  0  0  0  0  0  0  0  0
   38.7579    7.4484   20.7520 H   0  0  0  0  0  0  0  0  0  0  0  0
   39.3352    8.8160   19.8911 H   0  0  0  0  0  0  0  0  0  0  0  0
   41.2494    7.4104   19.6820 H   0  0  0  0  0  0  0  0  0  0  0  0
   40.5436    5.9152   17.5246 H   0  0  0  0  0  0  0  0  0  0  0  0
   40.7928    7.6261   17.3847 H   0  0  0  0  0  0  0  0  0  0  0  0
  1  2  1  0  0  0  0
  1 37  1  6  0  0  0
  2  3  1  0  0  0  0
  3  4  2  0  0  0  0
  4  5  1  0  0  0  0
  4 38  1  0  0  0  0
  5  6  1  0  0  0  0
  5  7  2  0  0  0  0
  6 12  1  0  0  0  0
  7  8  1  0  0  0  0
  7 39  1  0  0  0  0
  8  9  2  0  0  0  0
  8 40  1  0  0  0  0
  9 10  1  0  0  0  0
  9  3  1  0  0  0  0
 10 11  1  0  0  0  0
 11 21  1  0  0  0  0
 11  1  1  0  0  0  0
 11 41  1  6  0  0  0
 13 14  1  0  0  0  0
 13 20  1  0  0  0  0
 14 15  2  0  0  0  0
 15 16  1  0  0  0  0
 15 42  1  0  0  0  0
 16 17  2  0  0  0  0
 16 43  1  0  0  0  0
 17  1  1  0  0  0  0
 17 18  1  0  0  0  0
 18 19  2  0  0  0  0
 18 44  1  0  0  0  0
 19 14  1  0  0  0  0
 19 45  1  0  0  0  0
 21 22  2  0  0  0  0
 22 23  1  0  0  0  0
 22 46  1  0  0  0  0
 23 24  2  0  0  0  0
 23 47  1  0  0  0  0
 24 27  1  0  0  0  0
 24 25  1  0  0  0  0
 25 26  2  0  0  0  0
 25 48  1  0  0  0  0
 26 21  1  0  0  0  0
 26 49  1  0  0  0  0
 27 28  1  0  0  0  0
 28 29  1  0  0  0  0
 28 50  1  0  0  0  0
 28 51  1  0  0  0  0
 29 30  1  0  0  0  0
 29 52  1  0  0  0  0
 29 53  1  0  0  0  0
 30 31  1  0  0  0  0
 31 32  1  0  0  0  0
 31 54  1  0  0  0  0
 31 55  1  0  0  0  0
 32 33  1  0  0  0  0
 32 56  1  0  0  0  0
 32 57  1  0  0  0  0
 33 34  1  0  0  0  0
 33 35  1  0  0  0  0
 33 58  1  1  0  0  0
 34 36  1  0  0  0  0
 35 30  1  0  0  0  0
 35 59  1  0  0  0  0
 35 60  1  0  0  0  0
M  END
>  <minimizedAffinity>
-8.17976

$$$$
CHEMBL185114
 OpenBabel01042214213D

 60 64  0  0  0  0  0  0  0  0999 V2000
   36.4754   -3.2675   17.6828 C   0  0  1  0  0  0  0  0  0  0  0  0
   35.5848   -4.2746   18.9209 S   0  0  0  0  0  0  0  0  0  0  0  0
   33.9218   -3.6493   18.6463 C   0  0  0  0  0  0  0  0  0  0  0  0
   33.0017   -3.7490   19.6987 C   0  0  0  0  0  0  0  0  0  0  0  0
   31.6774   -3.3229   19.5302 C   0  0  0  0  0  0  0  0  0  0  0  0
   30.7592   -3.4172   20.5758 O   0  0  0  0  0  0  0  0  0  0  0  0
   31.2700   -2.8000   18.3013 C   0  0  0  0  0  0  0  0  0  0  0  0
   32.1903   -2.6619   17.2576 C   0  0  0  0  0  0  0  0  0  0  0  0
   33.5179   -3.0752   17.4235 C   0  0  0  0  0  0  0  0  0  0  0  0
   34.4179   -2.8207   16.3867 O   0  0  0  0  0  0  0  0  0  0  0  0
   35.7568   -3.3014   16.3173 C   0  0  1  0  0  0  0  0  0  0  0  0
   31.0170   -3.8198   21.4731 H   0  0  0  0  0  0  0  0  0  0  0  0
   37.9865    1.9882   19.4140 O   0  0  0  0  0  0  0  0  0  0  0  0
   37.6177    0.7105   18.9990 C   0  0  0  0  0  0  0  0  0  0  0  0
   38.5692   -0.1739   18.4803 C   0  0  0  0  0  0  0  0  0  0  0  0
   38.1916   -1.4550   18.0750 C   0  0  0  0  0  0  0  0  0  0  0  0
   36.8523   -1.8782   18.1836 C   0  0  0  0  0  0  0  0  0  0  0  0
   35.9011   -0.9753   18.6970 C   0  0  0  0  0  0  0  0  0  0  0  0
   36.2849    0.3077   19.1049 C   0  0  0  0  0  0  0  0  0  0  0  0
   38.9461    2.3090   19.3363 H   0  0  0  0  0  0  0  0  0  0  0  0
   36.5282   -2.5215   15.2719 C   0  0  0  0  0  0  0  0  0  0  0  0
   36.1830   -1.1914   14.9692 C   0  0  0  0  0  0  0  0  0  0  0  0
   36.8991   -0.4762   14.0093 C   0  0  0  0  0  0  0  0  0  0  0  0
   37.9956   -1.0656   13.3527 C   0  0  0  0  0  0  0  0  0  0  0  0
   38.3739   -2.3708   13.6973 C   0  0  0  0  0  0  0  0  0  0  0  0
   37.6486   -3.0957   14.6461 C   0  0  0  0  0  0  0  0  0  0  0  0
   38.7363   -0.3945   12.3643 O   0  0  0  0  0  0  0  0  0  0  0  0
   39.8346   -0.9444   11.6345 C   0  0  0  0  0  0  0  0  0  0  0  0
   41.1702   -0.4120   12.2049 C   0  0  0  0  0  0  0  0  0  0  0  0
   42.3688   -1.1994   11.8287 N   0  0  0  0  0  0  0  0  0  0  0  0
   43.0256   -1.8746   12.9608 C   0  0  0  0  0  0  0  0  0  0  0  0
   43.3635   -3.2926   12.5214 C   0  0  0  0  0  0  0  0  0  0  0  0
   42.4390   -3.5713   11.3540 C   0  0  1  0  0  0  0  0  0  0  0  0
   41.2490   -4.1509   11.8243 O   0  0  0  0  0  0  0  0  0  0  0  0
   42.1581   -2.1935   10.7636 C   0  0  0  0  0  0  0  0  0  0  0  0
   40.8448   -4.6164   11.0485 H   0  0  0  0  0  0  0  0  0  0  0  0
   37.4287   -3.7249   17.5189 H   0  0  0  0  0  0  0  0  0  0  0  0
   33.3020   -4.1396   20.6055 H   0  0  0  0  0  0  0  0  0  0  0  0
   30.2878   -2.5149   18.1630 H   0  0  0  0  0  0  0  0  0  0  0  0
   31.8892   -2.2528   16.3593 H   0  0  0  0  0  0  0  0  0  0  0  0
   35.7160   -4.3314   16.0303 H   0  0  0  0  0  0  0  0  0  0  0  0
   39.5543    0.1220   18.3970 H   0  0  0  0  0  0  0  0  0  0  0  0
   38.9010   -2.0991   17.6917 H   0  0  0  0  0  0  0  0  0  0  0  0
   34.9126   -1.2620   18.7732 H   0  0  0  0  0  0  0  0  0  0  0  0
   35.5800    0.9584   19.4854 H   0  0  0  0  0  0  0  0  0  0  0  0
   35.3947   -0.7420   15.4607 H   0  0  0  0  0  0  0  0  0  0  0  0
   36.6231    0.4912   13.7791 H   0  0  0  0  0  0  0  0  0  0  0  0
   39.1964   -2.8004   13.2456 H   0  0  0  0  0  0  0  0  0  0  0  0
   37.9364   -4.0566   14.8886 H   0  0  0  0  0  0  0  0  0  0  0  0
   39.7520   -0.6634   10.6053 H   0  0  0  0  0  0  0  0  0  0  0  0
   39.8157   -2.0106   11.7229 H   0  0  0  0  0  0  0  0  0  0  0  0
   41.0973   -0.4076   13.2724 H   0  0  0  0  0  0  0  0  0  0  0  0
   41.3080    0.5626   11.7852 H   0  0  0  0  0  0  0  0  0  0  0  0
   42.3650   -1.9015   13.8021 H   0  0  0  0  0  0  0  0  0  0  0  0
   43.9129   -1.3494   13.2467 H   0  0  0  0  0  0  0  0  0  0  0  0
   43.1846   -3.9856   13.3168 H   0  0  0  0  0  0  0  0  0  0  0  0
   44.3939   -3.3954   12.2519 H   0  0  0  0  0  0  0  0  0  0  0  0
   42.8594   -4.2450   10.6369 H   0  0  0  0  0  0  0  0  0  0  0  0
   41.1477   -2.1455   10.4148 H   0  0  0  0  0  0  0  0  0  0  0  0
   42.8086   -2.0003    9.9363 H   0  0  0  0  0  0  0  0  0  0  0  0
  1  2  1  0  0  0  0
  1 37  1  6  0  0  0
  2  3  1  0  0  0  0
  3  4  2  0  0  0  0
  4  5  1  0  0  0  0
  4 38  1  0  0  0  0
  5  6  1  0  0  0  0
  5  7  2  0  0  0  0
  6 12  1  0  0  0  0
  7  8  1  0  0  0  0
  7 39  1  0  0  0  0
  8  9  2  0  0  0  0
  8 40  1  0  0  0  0
  9 10  1  0  0  0  0
  9  3  1  0  0  0  0
 10 11  1  0  0  0  0
 11 21  1  0  0  0  0
 11  1  1  0  0  0  0
 11 41  1  6  0  0  0
 13 14  1  0  0  0  0
 13 20  1  0  0  0  0
 14 15  2  0  0  0  0
 15 16  1  0  0  0  0
 15 42  1  0  0  0  0
 16 17  2  0  0  0  0
 16 43  1  0  0  0  0
 17  1  1  0  0  0  0
 17 18  1  0  0  0  0
 18 19  2  0  0  0  0
 18 44  1  0  0  0  0
 19 14  1  0  0  0  0
 19 45  1  0  0  0  0
 21 22  2  0  0  0  0
 22 23  1  0  0  0  0
 22 46  1  0  0  0  0
 23 24  2  0  0  0  0
 23 47  1  0  0  0  0
 24 27  1  0  0  0  0
 24 25  1  0  0  0  0
 25 26  2  0  0  0  0
 25 48  1  0  0  0  0
 26 21  1  0  0  0  0
 26 49  1  0  0  0  0
 27 28  1  0  0  0  0
 28 29  1  0  0  0  0
 28 50  1  0  0  0  0
 28 51  1  0  0  0  0
 29 30  1  0  0  0  0
 29 52  1  0  0  0  0
 29 53  1  0  0  0  0
 30 31  1  0  0  0  0
 31 32  1  0  0  0  0
 31 54  1  0  0  0  0
 31 55  1  0  0  0  0
 32 33  1  0  0  0  0
 32 56  1  0  0  0  0
 32 57  1  0  0  0  0
 33 34  1  0  0  0  0
 33 35  1  0  0  0  0
 33 58  1  6  0  0  0
 34 36  1  0  0  0  0
 35 30  1  0  0  0  0
 35 59  1  0  0  0  0
 35 60  1  0  0  0  0
M  END
>  <minimizedAffinity>
-8.24974

$$$$
CHEMBL362718
 OpenBabel01042214213D

 60 64  0  0  0  0  0  0  0  0999 V2000
   37.0342   -4.5747   19.6423 C   0  0  1  0  0  0  0  0  0  0  0  0
   38.3139   -4.1613   18.4090 S   0  0  0  0  0  0  0  0  0  0  0  0
   37.1587   -3.6606   17.1325 C   0  0  0  0  0  0  0  0  0  0  0  0
   37.4631   -3.9452   15.7956 C   0  0  0  0  0  0  0  0  0  0  0  0
   36.6174   -3.5036   14.7693 C   0  0  0  0  0  0  0  0  0  0  0  0
   36.9176   -3.7723   13.4358 O   0  0  0  0  0  0  0  0  0  0  0  0
   35.4630   -2.7816   15.0850 C   0  0  0  0  0  0  0  0  0  0  0  0
   35.1421   -2.5200   16.4196 C   0  0  0  0  0  0  0  0  0  0  0  0
   35.9728   -2.9735   17.4505 C   0  0  0  0  0  0  0  0  0  0  0  0
   35.5504   -2.7934   18.7748 O   0  0  0  0  0  0  0  0  0  0  0  0
   36.2209   -3.2847   19.9433 C   0  0  1  0  0  0  0  0  0  0  0  0
   37.7454   -4.2950   13.1744 H   0  0  0  0  0  0  0  0  0  0  0  0
   34.2672   -9.3090   17.9486 O   0  0  0  0  0  0  0  0  0  0  0  0
   34.9330   -8.1589   18.3663 C   0  0  0  0  0  0  0  0  0  0  0  0
   34.2328   -7.1692   19.0594 C   0  0  0  0  0  0  0  0  0  0  0  0
   34.8852   -6.0083   19.4845 C   0  0  0  0  0  0  0  0  0  0  0  0
   36.2587   -5.8191   19.2191 C   0  0  0  0  0  0  0  0  0  0  0  0
   36.9518   -6.8274   18.5240 C   0  0  0  0  0  0  0  0  0  0  0  0
   36.2955   -7.9855   18.0997 C   0  0  0  0  0  0  0  0  0  0  0  0
   34.7474  -10.0448   17.4437 H   0  0  0  0  0  0  0  0  0  0  0  0
   35.2225   -3.3846   21.0920 C   0  0  0  0  0  0  0  0  0  0  0  0
   35.5269   -3.9875   22.3314 C   0  0  0  0  0  0  0  0  0  0  0  0
   34.5773   -4.0268   23.3559 C   0  0  0  0  0  0  0  0  0  0  0  0
   33.3153   -3.4540   23.1814 C   0  0  0  0  0  0  0  0  0  0  0  0
   33.0115   -2.8259   21.9618 C   0  0  0  0  0  0  0  0  0  0  0  0
   33.9584   -2.7858   20.9351 C   0  0  0  0  0  0  0  0  0  0  0  0
   32.3990   -3.5284   24.2396 O   0  0  0  0  0  0  0  0  0  0  0  0
   32.6400   -3.0336   25.5547 C   0  0  0  0  0  0  0  0  0  0  0  0
   32.7277   -1.5032   25.5340 C   0  0  0  0  0  0  0  0  0  0  0  0
   33.5931   -0.9748   26.6166 N   0  0  0  0  0  0  0  0  0  0  0  0
   33.0973   -1.3267   27.9736 C   0  0  0  0  0  0  0  0  0  0  0  0
   32.4686   -0.1551   28.7482 C   0  0  0  0  0  0  0  0  0  0  0  0
   31.3995    0.8445   27.6687 S   0  0  0  0  0  0  0  0  0  0  0  0
   32.7270    1.3941   26.5288 C   0  0  0  0  0  0  0  0  0  0  0  0
   33.9477    0.4553   26.4796 C   0  0  0  0  0  0  0  0  0  0  0  0
   37.4436   -4.8737   20.5845 H   0  0  0  0  0  0  0  0  0  0  0  0
   38.3137   -4.4823   15.5653 H   0  0  0  0  0  0  0  0  0  0  0  0
   34.8463   -2.4410   14.3308 H   0  0  0  0  0  0  0  0  0  0  0  0
   34.2869   -1.9889   16.6465 H   0  0  0  0  0  0  0  0  0  0  0  0
   36.9712   -2.5922   20.2632 H   0  0  0  0  0  0  0  0  0  0  0  0
   33.2282   -7.2956   19.2589 H   0  0  0  0  0  0  0  0  0  0  0  0
   34.3584   -5.2836   19.9966 H   0  0  0  0  0  0  0  0  0  0  0  0
   37.9576   -6.7099   18.3251 H   0  0  0  0  0  0  0  0  0  0  0  0
   36.8169   -8.7147   17.5885 H   0  0  0  0  0  0  0  0  0  0  0  0
   36.4594   -4.4031   22.4824 H   0  0  0  0  0  0  0  0  0  0  0  0
   34.8109   -4.4840   24.2511 H   0  0  0  0  0  0  0  0  0  0  0  0
   32.0852   -2.3924   21.8238 H   0  0  0  0  0  0  0  0  0  0  0  0
   33.7276   -2.3102   20.0488 H   0  0  0  0  0  0  0  0  0  0  0  0
   33.5614   -3.4359   25.9209 H   0  0  0  0  0  0  0  0  0  0  0  0
   31.8341   -3.3296   26.1933 H   0  0  0  0  0  0  0  0  0  0  0  0
   31.7435   -1.1004   25.6525 H   0  0  0  0  0  0  0  0  0  0  0  0
   33.1586   -1.2124   24.5988 H   0  0  0  0  0  0  0  0  0  0  0  0
   33.9220   -1.7000   28.5441 H   0  0  0  0  0  0  0  0  0  0  0  0
   32.3216   -2.0506   27.8354 H   0  0  0  0  0  0  0  0  0  0  0  0
   33.2487    0.4647   29.1383 H   0  0  0  0  0  0  0  0  0  0  0  0
   31.8724   -0.5536   29.5424 H   0  0  0  0  0  0  0  0  0  0  0  0
   33.0601    2.3610   26.8434 H   0  0  0  0  0  0  0  0  0  0  0  0
   32.3045    1.4000   25.5458 H   0  0  0  0  0  0  0  0  0  0  0  0
   34.6108    0.7185   27.2771 H   0  0  0  0  0  0  0  0  0  0  0  0
   34.4029    0.5780   25.5191 H   0  0  0  0  0  0  0  0  0  0  0  0
  1  2  1  0  0  0  0
  1 36  1  1  0  0  0
  2  3  1  0  0  0  0
  3  4  2  0  0  0  0
  4  5  1  0  0  0  0
  4 37  1  0  0  0  0
  5  6  1  0  0  0  0
  5  7  2  0  0  0  0
  6 12  1  0  0  0  0
  7  8  1  0  0  0  0
  7 38  1  0  0  0  0
  8  9  2  0  0  0  0
  8 39  1  0  0  0  0
  9 10  1  0  0  0  0
  9  3  1  0  0  0  0
 10 11  1  0  0  0  0
 11 21  1  0  0  0  0
 11  1  1  0  0  0  0
 11 40  1  1  0  0  0
 13 14  1  0  0  0  0
 13 20  1  0  0  0  0
 14 15  2  0  0  0  0
 15 16  1  0  0  0  0
 15 41  1  0  0  0  0
 16 17  2  0  0  0  0
 16 42  1  0  0  0  0
 17  1  1  0  0  0  0
 17 18  1  0  0  0  0
 18 19  2  0  0  0  0
 18 43  1  0  0  0  0
 19 14  1  0  0  0  0
 19 44  1  0  0  0  0
 21 22  2  0  0  0  0
 22 23  1  0  0  0  0
 22 45  1  0  0  0  0
 23 24  2  0  0  0  0
 23 46  1  0  0  0  0
 24 27  1  0  0  0  0
 24 25  1  0  0  0  0
 25 26  2  0  0  0  0
 25 47  1  0  0  0  0
 26 21  1  0  0  0  0
 26 48  1  0  0  0  0
 27 28  1  0  0  0  0
 28 29  1  0  0  0  0
 28 49  1  0  0  0  0
 28 50  1  0  0  0  0
 29 30  1  0  0  0  0
 29 51  1  0  0  0  0
 29 52  1  0  0  0  0
 30 31  1  0  0  0  0
 31 32  1  0  0  0  0
 31 53  1  0  0  0  0
 31 54  1  0  0  0  0
 32 33  1  0  0  0  0
 32 55  1  0  0  0  0
 32 56  1  0  0  0  0
 33 34  1  0  0  0  0
 34 35  1  0  0  0  0
 34 57  1  0  0  0  0
 34 58  1  0  0  0  0
 35 30  1  0  0  0  0
 35 59  1  0  0  0  0
 35 60  1  0  0  0  0
M  END
>  <minimizedAffinity>
-8.26343

$$$$
CHEMBL362718
 OpenBabel01042214213D

 60 64  0  0  0  0  0  0  0  0999 V2000
   33.3525   -2.9030   18.3533 C   0  0  1  0  0  0  0  0  0  0  0  0
   32.8807   -3.1278   16.5981 S   0  0  0  0  0  0  0  0  0  0  0  0
   33.4613   -4.8190   16.3455 C   0  0  0  0  0  0  0  0  0  0  0  0
   33.6592   -5.2472   15.0256 C   0  0  0  0  0  0  0  0  0  0  0  0
   34.1278   -6.5366   14.7573 C   0  0  0  0  0  0  0  0  0  0  0  0
   34.3100   -6.9415   13.4369 O   0  0  0  0  0  0  0  0  0  0  0  0
   34.4114   -7.4064   15.8162 C   0  0  0  0  0  0  0  0  0  0  0  0
   34.2332   -6.9838   17.1350 C   0  0  0  0  0  0  0  0  0  0  0  0
   33.7611   -5.6955   17.4109 C   0  0  0  0  0  0  0  0  0  0  0  0
   33.6575   -5.3034   18.7475 O   0  0  0  0  0  0  0  0  0  0  0  0
   32.9617   -4.1405   19.1824 C   0  0  1  0  0  0  0  0  0  0  0  0
   34.6498   -7.8687   13.2094 H   0  0  0  0  0  0  0  0  0  0  0  0
   38.8001   -1.1834   18.8670 O   0  0  0  0  0  0  0  0  0  0  0  0
   37.4782   -1.6084   18.7561 C   0  0  0  0  0  0  0  0  0  0  0  0
   36.4644   -0.8825   19.3855 C   0  0  0  0  0  0  0  0  0  0  0  0
   35.1322   -1.2931   19.2808 C   0  0  0  0  0  0  0  0  0  0  0  0
   34.7934   -2.4476   18.5475 C   0  0  0  0  0  0  0  0  0  0  0  0
   35.8253   -3.1682   17.9147 C   0  0  0  0  0  0  0  0  0  0  0  0
   37.1552   -2.7532   18.0194 C   0  0  0  0  0  0  0  0  0  0  0  0
   39.5575   -1.6875   18.4206 H   0  0  0  0  0  0  0  0  0  0  0  0
   33.1911   -3.9142   20.6613 C   0  0  0  0  0  0  0  0  0  0  0  0
   32.2011   -3.3232   21.4666 C   0  0  0  0  0  0  0  0  0  0  0  0
   32.4004   -3.1811   22.8420 C   0  0  0  0  0  0  0  0  0  0  0  0
   33.5819   -3.6312   23.4399 C   0  0  0  0  0  0  0  0  0  0  0  0
   34.5716   -4.2312   22.6392 C   0  0  0  0  0  0  0  0  0  0  0  0
   34.3727   -4.3756   21.2633 C   0  0  0  0  0  0  0  0  0  0  0  0
   33.7302   -3.4683   24.8245 O   0  0  0  0  0  0  0  0  0  0  0  0
   32.7763   -2.8295   25.6696 C   0  0  0  0  0  0  0  0  0  0  0  0
   32.7870   -1.3152   25.4307 C   0  0  0  0  0  0  0  0  0  0  0  0
   32.7465   -0.5531   26.7011 N   0  0  0  0  0  0  0  0  0  0  0  0
   33.3254   -1.3318   27.8261 C   0  0  0  0  0  0  0  0  0  0  0  0
   33.7196   -0.4513   29.0144 C   0  0  0  0  0  0  0  0  0  0  0  0
   35.1751    0.5893   28.6271 S   0  0  0  0  0  0  0  0  0  0  0  0
   34.8419    0.8306   26.8430 C   0  0  0  0  0  0  0  0  0  0  0  0
   33.3411    0.7987   26.5379 C   0  0  0  0  0  0  0  0  0  0  0  0
   32.7838   -2.0815   18.7363 H   0  0  0  0  0  0  0  0  0  0  0  0
   33.4570   -4.6042   14.2441 H   0  0  0  0  0  0  0  0  0  0  0  0
   34.7525   -8.3609   15.6222 H   0  0  0  0  0  0  0  0  0  0  0  0
   34.4513   -7.6265   17.9124 H   0  0  0  0  0  0  0  0  0  0  0  0
   31.9151   -4.2997   19.0266 H   0  0  0  0  0  0  0  0  0  0  0  0
   36.7000   -0.0386   19.9307 H   0  0  0  0  0  0  0  0  0  0  0  0
   34.3904   -0.7458   19.7447 H   0  0  0  0  0  0  0  0  0  0  0  0
   35.5962   -4.0126   17.3674 H   0  0  0  0  0  0  0  0  0  0  0  0
   37.9010   -3.2923   17.5523 H   0  0  0  0  0  0  0  0  0  0  0  0
   31.3221   -2.9925   21.0389 H   0  0  0  0  0  0  0  0  0  0  0  0
   31.6694   -2.7402   23.4219 H   0  0  0  0  0  0  0  0  0  0  0  0
   35.4478   -4.5659   23.0697 H   0  0  0  0  0  0  0  0  0  0  0  0
   35.1001   -4.8249   20.6853 H   0  0  0  0  0  0  0  0  0  0  0  0
   33.0214   -3.0277   26.6921 H   0  0  0  0  0  0  0  0  0  0  0  0
   31.8018   -3.2111   25.4468 H   0  0  0  0  0  0  0  0  0  0  0  0
   31.9328   -1.0521   24.8425 H   0  0  0  0  0  0  0  0  0  0  0  0
   33.6964   -1.0666   24.9247 H   0  0  0  0  0  0  0  0  0  0  0  0
   34.1973   -1.8432   27.4752 H   0  0  0  0  0  0  0  0  0  0  0  0
   32.5750   -2.0148   28.1656 H   0  0  0  0  0  0  0  0  0  0  0  0
   33.9532   -1.0786   29.8492 H   0  0  0  0  0  0  0  0  0  0  0  0
   32.8968    0.1943   29.2406 H   0  0  0  0  0  0  0  0  0  0  0  0
   35.3246    0.0510   26.2915 H   0  0  0  0  0  0  0  0  0  0  0  0
   35.2196    1.7908   26.5599 H   0  0  0  0  0  0  0  0  0  0  0  0
   33.1912    1.1179   25.5277 H   0  0  0  0  0  0  0  0  0  0  0  0
   32.8575    1.4487   27.2368 H   0  0  0  0  0  0  0  0  0  0  0  0
  1  2  1  0  0  0  0
  1 36  1  1  0  0  0
  2  3  1  0  0  0  0
  3  4  2  0  0  0  0
  4  5  1  0  0  0  0
  4 37  1  0  0  0  0
  5  6  1  0  0  0  0
  5  7  2  0  0  0  0
  6 12  1  0  0  0  0
  7  8  1  0  0  0  0
  7 38  1  0  0  0  0
  8  9  2  0  0  0  0
  8 39  1  0  0  0  0
  9 10  1  0  0  0  0
  9  3  1  0  0  0  0
 10 11  1  0  0  0  0
 11 21  1  0  0  0  0
 11  1  1  0  0  0  0
 11 40  1  6  0  0  0
 13 14  1  0  0  0  0
 13 20  1  0  0  0  0
 14 15  2  0  0  0  0
 15 16  1  0  0  0  0
 15 41  1  0  0  0  0
 16 17  2  0  0  0  0
 16 42  1  0  0  0  0
 17  1  1  0  0  0  0
 17 18  1  0  0  0  0
 18 19  2  0  0  0  0
 18 43  1  0  0  0  0
 19 14  1  0  0  0  0
 19 44  1  0  0  0  0
 21 22  2  0  0  0  0
 22 23  1  0  0  0  0
 22 45  1  0  0  0  0
 23 24  2  0  0  0  0
 23 46  1  0  0  0  0
 24 27  1  0  0  0  0
 24 25  1  0  0  0  0
 25 26  2  0  0  0  0
 25 47  1  0  0  0  0
 26 21  1  0  0  0  0
 26 48  1  0  0  0  0
 27 28  1  0  0  0  0
 28 29  1  0  0  0  0
 28 49  1  0  0  0  0
 28 50  1  0  0  0  0
 29 30  1  0  0  0  0
 29 51  1  0  0  0  0
 29 52  1  0  0  0  0
 30 31  1  0  0  0  0
 31 32  1  0  0  0  0
 31 53  1  0  0  0  0
 31 54  1  0  0  0  0
 32 33  1  0  0  0  0
 32 55  1  0  0  0  0
 32 56  1  0  0  0  0
 33 34  1  0  0  0  0
 34 35  1  0  0  0  0
 34 57  1  0  0  0  0
 34 58  1  0  0  0  0
 35 30  1  0  0  0  0
 35 59  1  0  0  0  0
 35 60  1  0  0  0  0
M  END
>  <minimizedAffinity>
-8.26766

$$$$
CHEMBL185114
 OpenBabel01042214213D

 60 64  0  0  0  0  0  0  0  0999 V2000
   38.0594    0.1916   16.9788 C   0  0  1  0  0  0  0  0  0  0  0  0
   38.6311    1.6458   16.0308 S   0  0  0  0  0  0  0  0  0  0  0  0
   37.0327    2.3652   15.6310 C   0  0  0  0  0  0  0  0  0  0  0  0
   36.9491    3.1900   14.5011 C   0  0  0  0  0  0  0  0  0  0  0  0
   35.7422    3.8177   14.1647 C   0  0  0  0  0  0  0  0  0  0  0  0
   35.6536    4.6368   13.0393 O   0  0  0  0  0  0  0  0  0  0  0  0
   34.6151    3.6241   14.9657 C   0  0  0  0  0  0  0  0  0  0  0  0
   34.6791    2.7732   16.0736 C   0  0  0  0  0  0  0  0  0  0  0  0
   35.8793    2.1339   16.4082 C   0  0  0  0  0  0  0  0  0  0  0  0
   35.8619    1.2170   17.4611 O   0  0  0  0  0  0  0  0  0  0  0  0
   37.0074    0.5940   18.0340 C   0  0  1  0  0  0  0  0  0  0  0  0
   36.4631    4.8208   12.4524 H   0  0  0  0  0  0  0  0  0  0  0  0
   36.7100   -4.3885   13.8000 O   0  0  0  0  0  0  0  0  0  0  0  0
   37.0362   -3.2726   14.5675 C   0  0  0  0  0  0  0  0  0  0  0  0
   38.3404   -3.0858   15.0371 C   0  0  0  0  0  0  0  0  0  0  0  0
   38.6596   -1.9603   15.7984 C   0  0  0  0  0  0  0  0  0  0  0  0
   37.6786   -0.9962   16.1029 C   0  0  0  0  0  0  0  0  0  0  0  0
   36.3663   -1.2005   15.6340 C   0  0  0  0  0  0  0  0  0  0  0  0
   36.0514   -2.3295   14.8685 C   0  0  0  0  0  0  0  0  0  0  0  0
   37.4045   -5.0942   13.5776 H   0  0  0  0  0  0  0  0  0  0  0  0
   36.5804   -0.5986   18.8656 C   0  0  0  0  0  0  0  0  0  0  0  0
   37.5343   -1.5072   19.3601 C   0  0  0  0  0  0  0  0  0  0  0  0
   37.1367   -2.6010   20.1290 C   0  0  0  0  0  0  0  0  0  0  0  0
   35.7790   -2.7932   20.4460 C   0  0  0  0  0  0  0  0  0  0  0  0
   34.8369   -1.8552   20.0013 C   0  0  0  0  0  0  0  0  0  0  0  0
   35.2296   -0.7678   19.2169 C   0  0  0  0  0  0  0  0  0  0  0  0
   35.3254   -3.8895   21.2000 O   0  0  0  0  0  0  0  0  0  0  0  0
   34.3761   -4.8625   20.7604 C   0  0  0  0  0  0  0  0  0  0  0  0
   34.7323   -5.3446   19.3344 C   0  0  0  0  0  0  0  0  0  0  0  0
   33.6084   -5.3218   18.3678 N   0  0  0  0  0  0  0  0  0  0  0  0
   33.5502   -4.1050   17.5403 C   0  0  0  0  0  0  0  0  0  0  0  0
   33.2747   -4.5335   16.1055 C   0  0  0  0  0  0  0  0  0  0  0  0
   33.6993   -5.9864   16.0426 C   0  0  1  0  0  0  0  0  0  0  0  0
   35.0482   -6.0660   15.6588 O   0  0  0  0  0  0  0  0  0  0  0  0
   33.5265   -6.4876   17.4726 C   0  0  0  0  0  0  0  0  0  0  0  0
   35.1795   -6.9821   15.3047 H   0  0  0  0  0  0  0  0  0  0  0  0
   38.8951   -0.1827   17.5323 H   0  0  0  0  0  0  0  0  0  0  0  0
   37.7835    3.3364   13.9117 H   0  0  0  0  0  0  0  0  0  0  0  0
   33.7331    4.1099   14.7397 H   0  0  0  0  0  0  0  0  0  0  0  0
   33.8366    2.6154   16.6483 H   0  0  0  0  0  0  0  0  0  0  0  0
   37.4840    1.3132   18.6669 H   0  0  0  0  0  0  0  0  0  0  0  0
   39.0696   -3.7830   14.8198 H   0  0  0  0  0  0  0  0  0  0  0  0
   39.6244   -1.8331   16.1418 H   0  0  0  0  0  0  0  0  0  0  0  0
   35.6305   -0.5120   15.8567 H   0  0  0  0  0  0  0  0  0  0  0  0
   35.0877   -2.4653   14.5253 H   0  0  0  0  0  0  0  0  0  0  0  0
   38.5349   -1.3633   19.1525 H   0  0  0  0  0  0  0  0  0  0  0  0
   37.8425   -3.2735   20.4675 H   0  0  0  0  0  0  0  0  0  0  0  0
   33.8433   -1.9690   20.2559 H   0  0  0  0  0  0  0  0  0  0  0  0
   34.5253   -0.0860   18.8941 H   0  0  0  0  0  0  0  0  0  0  0  0
   33.3992   -4.4260   20.7529 H   0  0  0  0  0  0  0  0  0  0  0  0
   34.3957   -5.6983   21.4282 H   0  0  0  0  0  0  0  0  0  0  0  0
   35.0906   -6.3505   19.4036 H   0  0  0  0  0  0  0  0  0  0  0  0
   35.4634   -4.6588   18.9601 H   0  0  0  0  0  0  0  0  0  0  0  0
   34.4834   -3.5840   17.5922 H   0  0  0  0  0  0  0  0  0  0  0  0
   32.7796   -3.4503   17.8903 H   0  0  0  0  0  0  0  0  0  0  0  0
   33.8475   -3.9442   15.4203 H   0  0  0  0  0  0  0  0  0  0  0  0
   32.2472   -4.4028   15.8369 H   0  0  0  0  0  0  0  0  0  0  0  0
   33.1335   -6.5592   15.3378 H   0  0  0  0  0  0  0  0  0  0  0  0
   34.3022   -7.1852   17.7106 H   0  0  0  0  0  0  0  0  0  0  0  0
   32.5841   -6.9816   17.5855 H   0  0  0  0  0  0  0  0  0  0  0  0
  1  2  1  0  0  0  0
  1 37  1  1  0  0  0
  2  3  1  0  0  0  0
  3  4  2  0  0  0  0
  4  5  1  0  0  0  0
  4 38  1  0  0  0  0
  5  6  1  0  0  0  0
  5  7  2  0  0  0  0
  6 12  1  0  0  0  0
  7  8  1  0  0  0  0
  7 39  1  0  0  0  0
  8  9  2  0  0  0  0
  8 40  1  0  0  0  0
  9 10  1  0  0  0  0
  9  3  1  0  0  0  0
 10 11  1  0  0  0  0
 11 21  1  0  0  0  0
 11  1  1  0  0  0  0
 11 41  1  1  0  0  0
 13 14  1  0  0  0  0
 13 20  1  0  0  0  0
 14 15  2  0  0  0  0
 15 16  1  0  0  0  0
 15 42  1  0  0  0  0
 16 17  2  0  0  0  0
 16 43  1  0  0  0  0
 17  1  1  0  0  0  0
 17 18  1  0  0  0  0
 18 19  2  0  0  0  0
 18 44  1  0  0  0  0
 19 14  1  0  0  0  0
 19 45  1  0  0  0  0
 21 22  2  0  0  0  0
 22 23  1  0  0  0  0
 22 46  1  0  0  0  0
 23 24  2  0  0  0  0
 23 47  1  0  0  0  0
 24 27  1  0  0  0  0
 24 25  1  0  0  0  0
 25 26  2  0  0  0  0
 25 48  1  0  0  0  0
 26 21  1  0  0  0  0
 26 49  1  0  0  0  0
 27 28  1  0  0  0  0
 28 29  1  0  0  0  0
 28 50  1  0  0  0  0
 28 51  1  0  0  0  0
 29 30  1  0  0  0  0
 29 52  1  0  0  0  0
 29 53  1  0  0  0  0
 30 31  1  0  0  0  0
 31 32  1  0  0  0  0
 31 54  1  0  0  0  0
 31 55  1  0  0  0  0
 32 33  1  0  0  0  0
 32 56  1  0  0  0  0
 32 57  1  0  0  0  0
 33 34  1  0  0  0  0
 33 35  1  0  0  0  0
 33 58  1  6  0  0  0
 34 36  1  0  0  0  0
 35 30  1  0  0  0  0
 35 59  1  0  0  0  0
 35 60  1  0  0  0  0
M  END
>  <minimizedAffinity>
-8.28502

$$$$
CHEMBL362718
 OpenBabel01042214213D

 60 64  0  0  0  0  0  0  0  0999 V2000
   33.3441   -3.0451   18.2429 C   0  0  1  0  0  0  0  0  0  0  0  0
   32.8325   -3.3125   16.5049 S   0  0  0  0  0  0  0  0  0  0  0  0
   33.4387   -4.9972   16.2695 C   0  0  0  0  0  0  0  0  0  0  0  0
   33.6113   -5.4472   14.9533 C   0  0  0  0  0  0  0  0  0  0  0  0
   34.0976   -6.7325   14.6975 C   0  0  0  0  0  0  0  0  0  0  0  0
   34.2541   -7.1595   13.3807 O   0  0  0  0  0  0  0  0  0  0  0  0
   34.4245   -7.5762   15.7649 C   0  0  0  0  0  0  0  0  0  0  0  0
   34.2717   -7.1316   17.0797 C   0  0  0  0  0  0  0  0  0  0  0  0
   33.7821   -5.8471   17.3432 C   0  0  0  0  0  0  0  0  0  0  0  0
   33.7049   -5.4313   18.6744 O   0  0  0  0  0  0  0  0  0  0  0  0
   32.9981   -4.2733   19.1050 C   0  0  1  0  0  0  0  0  0  0  0  0
   34.6057   -8.0844   13.1621 H   0  0  0  0  0  0  0  0  0  0  0  0
   38.7264   -1.2218   19.0194 O   0  0  0  0  0  0  0  0  0  0  0  0
   37.4188   -1.6570   18.8170 C   0  0  0  0  0  0  0  0  0  0  0  0
   37.1817   -2.7925   18.0390 C   0  0  0  0  0  0  0  0  0  0  0  0
   35.8757   -3.2450   17.8294 C   0  0  0  0  0  0  0  0  0  0  0  0
   34.7805   -2.5592   18.3914 C   0  0  0  0  0  0  0  0  0  0  0  0
   35.0342   -1.4178   19.1770 C   0  0  0  0  0  0  0  0  0  0  0  0
   36.3411   -0.9701   19.3864 C   0  0  0  0  0  0  0  0  0  0  0  0
   38.9310   -0.4027   19.5802 H   0  0  0  0  0  0  0  0  0  0  0  0
   33.2606   -4.0142   20.5729 C   0  0  0  0  0  0  0  0  0  0  0  0
   32.3114   -3.3542   21.3737 C   0  0  0  0  0  0  0  0  0  0  0  0
   32.5382   -3.1808   22.7413 C   0  0  0  0  0  0  0  0  0  0  0  0
   33.7069   -3.6673   23.3359 C   0  0  0  0  0  0  0  0  0  0  0  0
   34.6553   -4.3362   22.5400 C   0  0  0  0  0  0  0  0  0  0  0  0
   34.4289   -4.5119   21.1720 C   0  0  0  0  0  0  0  0  0  0  0  0
   33.8838   -3.4706   24.7127 O   0  0  0  0  0  0  0  0  0  0  0  0
   32.8297   -3.1920   25.6311 C   0  0  0  0  0  0  0  0  0  0  0  0
   32.7801   -1.6914   25.9413 C   0  0  0  0  0  0  0  0  0  0  0  0
   31.3888   -1.1870   26.0198 N   0  0  0  0  0  0  0  0  0  0  0  0
   30.4070   -2.2985   26.1080 C   0  0  0  0  0  0  0  0  0  0  0  0
   29.0456   -1.8450   26.6406 C   0  0  0  0  0  0  0  0  0  0  0  0
   29.1281   -1.4137   28.4178 S   0  0  0  0  0  0  0  0  0  0  0  0
   30.8460   -0.7809   28.4418 C   0  0  0  0  0  0  0  0  0  0  0  0
   31.2436   -0.1709   27.0939 C   0  0  0  0  0  0  0  0  0  0  0  0
   32.7696   -2.2272   18.6249 H   0  0  0  0  0  0  0  0  0  0  0  0
   33.3770   -4.8234   14.1653 H   0  0  0  0  0  0  0  0  0  0  0  0
   34.7788   -8.5277   15.5802 H   0  0  0  0  0  0  0  0  0  0  0  0
   34.5217   -7.7549   17.8633 H   0  0  0  0  0  0  0  0  0  0  0  0
   31.9512   -4.4549   18.9792 H   0  0  0  0  0  0  0  0  0  0  0  0
   37.9748   -3.3001   17.6167 H   0  0  0  0  0  0  0  0  0  0  0  0
   35.7122   -4.0887   17.2581 H   0  0  0  0  0  0  0  0  0  0  0  0
   34.2455   -0.9063   19.6029 H   0  0  0  0  0  0  0  0  0  0  0  0
   36.5118   -0.1309   19.9623 H   0  0  0  0  0  0  0  0  0  0  0  0
   31.4420   -2.9958   20.9485 H   0  0  0  0  0  0  0  0  0  0  0  0
   31.8373   -2.6895   23.3178 H   0  0  0  0  0  0  0  0  0  0  0  0
   35.5216   -4.6985   22.9682 H   0  0  0  0  0  0  0  0  0  0  0  0
   35.1259   -5.0114   20.5977 H   0  0  0  0  0  0  0  0  0  0  0  0
   32.9981   -3.7349   26.5376 H   0  0  0  0  0  0  0  0  0  0  0  0
   31.8990   -3.4891   25.1947 H   0  0  0  0  0  0  0  0  0  0  0  0
   33.2967   -1.1615   25.1685 H   0  0  0  0  0  0  0  0  0  0  0  0
   33.2428   -1.5350   26.8933 H   0  0  0  0  0  0  0  0  0  0  0  0
   30.7978   -3.0490   26.7630 H   0  0  0  0  0  0  0  0  0  0  0  0
   30.2568   -2.6756   25.1180 H   0  0  0  0  0  0  0  0  0  0  0  0
   28.3391   -2.6376   26.5079 H   0  0  0  0  0  0  0  0  0  0  0  0
   28.7471   -0.9727   26.0976 H   0  0  0  0  0  0  0  0  0  0  0  0
   31.5103   -1.5892   28.6661 H   0  0  0  0  0  0  0  0  0  0  0  0
   30.9092   -0.0150   29.1863 H   0  0  0  0  0  0  0  0  0  0  0  0
   32.1777    0.3375   27.2115 H   0  0  0  0  0  0  0  0  0  0  0  0
   30.4609    0.4970   26.8004 H   0  0  0  0  0  0  0  0  0  0  0  0
  1  2  1  0  0  0  0
  1 36  1  1  0  0  0
  2  3  1  0  0  0  0
  3  4  2  0  0  0  0
  4  5  1  0  0  0  0
  4 37  1  0  0  0  0
  5  6  1  0  0  0  0
  5  7  2  0  0  0  0
  6 12  1  0  0  0  0
  7  8  1  0  0  0  0
  7 38  1  0  0  0  0
  8  9  2  0  0  0  0
  8 39  1  0  0  0  0
  9 10  1  0  0  0  0
  9  3  1  0  0  0  0
 10 11  1  0  0  0  0
 11 21  1  0  0  0  0
 11  1  1  0  0  0  0
 11 40  1  6  0  0  0
 13 14  1  0  0  0  0
 13 20  1  0  0  0  0
 14 15  2  0  0  0  0
 15 16  1  0  0  0  0
 15 41  1  0  0  0  0
 16 17  2  0  0  0  0
 16 42  1  0  0  0  0
 17  1  1  0  0  0  0
 17 18  1  0  0  0  0
 18 19  2  0  0  0  0
 18 43  1  0  0  0  0
 19 14  1  0  0  0  0
 19 44  1  0  0  0  0
 21 22  2  0  0  0  0
 22 23  1  0  0  0  0
 22 45  1  0  0  0  0
 23 24  2  0  0  0  0
 23 46  1  0  0  0  0
 24 27  1  0  0  0  0
 24 25  1  0  0  0  0
 25 26  2  0  0  0  0
 25 47  1  0  0  0  0
 26 21  1  0  0  0  0
 26 48  1  0  0  0  0
 27 28  1  0  0  0  0
 28 29  1  0  0  0  0
 28 49  1  0  0  0  0
 28 50  1  0  0  0  0
 29 30  1  0  0  0  0
 29 51  1  0  0  0  0
 29 52  1  0  0  0  0
 30 31  1  0  0  0  0
 31 32  1  0  0  0  0
 31 53  1  0  0  0  0
 31 54  1  0  0  0  0
 32 33  1  0  0  0  0
 32 55  1  0  0  0  0
 32 56  1  0  0  0  0
 33 34  1  0  0  0  0
 34 35  1  0  0  0  0
 34 57  1  0  0  0  0
 34 58  1  0  0  0  0
 35 30  1  0  0  0  0
 35 59  1  0  0  0  0
 35 60  1  0  0  0  0
M  END
>  <minimizedAffinity>
-8.29545

$$$$
CHEMBL185114
 OpenBabel01042214213D

 60 64  0  0  0  0  0  0  0  0999 V2000
   36.7436   -4.1492   18.4492 C   0  0  1  0  0  0  0  0  0  0  0  0
   37.9176   -3.8301   17.0854 S   0  0  0  0  0  0  0  0  0  0  0  0
   37.1264   -2.3839   16.3678 C   0  0  0  0  0  0  0  0  0  0  0  0
   37.3746   -2.1031   15.0174 C   0  0  0  0  0  0  0  0  0  0  0  0
   36.8250   -0.9641   14.4137 C   0  0  0  0  0  0  0  0  0  0  0  0
   37.0667   -0.6824   13.0693 O   0  0  0  0  0  0  0  0  0  0  0  0
   36.0282   -0.0988   15.1660 C   0  0  0  0  0  0  0  0  0  0  0  0
   35.7444   -0.3907   16.5038 C   0  0  0  0  0  0  0  0  0  0  0  0
   36.2811   -1.5334   17.1095 C   0  0  0  0  0  0  0  0  0  0  0  0
   35.8837   -1.8314   18.4145 O   0  0  0  0  0  0  0  0  0  0  0  0
   36.4379   -2.8559   19.2341 C   0  0  1  0  0  0  0  0  0  0  0  0
   37.6658   -1.2768   12.5024 H   0  0  0  0  0  0  0  0  0  0  0  0
   32.0984   -7.2010   17.0309 O   0  0  0  0  0  0  0  0  0  0  0  0
   33.2287   -6.4605   17.3699 C   0  0  0  0  0  0  0  0  0  0  0  0
   34.0925   -6.8983   18.3791 C   0  0  0  0  0  0  0  0  0  0  0  0
   35.2270   -6.1538   18.7060 C   0  0  0  0  0  0  0  0  0  0  0  0
   35.5215   -4.9557   18.0260 C   0  0  0  0  0  0  0  0  0  0  0  0
   34.6386   -4.5191   17.0192 C   0  0  0  0  0  0  0  0  0  0  0  0
   33.5035   -5.2705   16.6929 C   0  0  0  0  0  0  0  0  0  0  0  0
   31.8703   -8.0628   17.5159 H   0  0  0  0  0  0  0  0  0  0  0  0
   35.5168   -3.1298   20.4057 C   0  0  0  0  0  0  0  0  0  0  0  0
   35.9653   -3.8738   21.5125 C   0  0  0  0  0  0  0  0  0  0  0  0
   35.1149   -4.1195   22.5907 C   0  0  0  0  0  0  0  0  0  0  0  0
   33.8068   -3.6003   22.5990 C   0  0  0  0  0  0  0  0  0  0  0  0
   33.3810   -2.8107   21.5217 C   0  0  0  0  0  0  0  0  0  0  0  0
   34.2244   -2.5768   20.4327 C   0  0  0  0  0  0  0  0  0  0  0  0
   32.9053   -3.8362   23.6515 O   0  0  0  0  0  0  0  0  0  0  0  0
   33.0286   -3.3243   24.9796 C   0  0  0  0  0  0  0  0  0  0  0  0
   32.5145   -1.8666   25.0361 C   0  0  0  0  0  0  0  0  0  0  0  0
   33.2777   -0.9689   25.9361 N   0  0  0  0  0  0  0  0  0  0  0  0
   32.8644    0.4431   25.8705 C   0  0  0  0  0  0  0  0  0  0  0  0
   32.7762    0.9666   27.2974 C   0  0  0  0  0  0  0  0  0  0  0  0
   32.6256   -0.2702   28.1593 C   0  0  1  0  0  0  0  0  0  0  0  0
   31.2619   -0.5607   28.3310 O   0  0  0  0  0  0  0  0  0  0  0  0
   33.3028   -1.3724   27.3516 C   0  0  0  0  0  0  0  0  0  0  0  0
   31.2018   -1.1280   29.1411 H   0  0  0  0  0  0  0  0  0  0  0  0
   37.2267   -4.8024   19.1455 H   0  0  0  0  0  0  0  0  0  0  0  0
   37.9672   -2.7405   14.4628 H   0  0  0  0  0  0  0  0  0  0  0  0
   35.6480    0.7578   14.7339 H   0  0  0  0  0  0  0  0  0  0  0  0
   35.1355    0.2401   17.0482 H   0  0  0  0  0  0  0  0  0  0  0  0
   37.3793   -2.5031   19.6004 H   0  0  0  0  0  0  0  0  0  0  0  0
   33.8902   -7.7753   18.8841 H   0  0  0  0  0  0  0  0  0  0  0  0
   35.8567   -6.4845   19.4537 H   0  0  0  0  0  0  0  0  0  0  0  0
   34.8302   -3.6377   16.5178 H   0  0  0  0  0  0  0  0  0  0  0  0
   32.8672   -4.9437   15.9490 H   0  0  0  0  0  0  0  0  0  0  0  0
   36.9299   -4.2402   21.5268 H   0  0  0  0  0  0  0  0  0  0  0  0
   35.4470   -4.6855   23.3872 H   0  0  0  0  0  0  0  0  0  0  0  0
   32.4351   -2.3981   21.5332 H   0  0  0  0  0  0  0  0  0  0  0  0
   33.8975   -1.9958   19.6449 H   0  0  0  0  0  0  0  0  0  0  0  0
   34.0569   -3.3488   25.2745 H   0  0  0  0  0  0  0  0  0  0  0  0
   32.4455   -3.9277   25.6435 H   0  0  0  0  0  0  0  0  0  0  0  0
   31.4980   -1.8855   25.3697 H   0  0  0  0  0  0  0  0  0  0  0  0
   32.6296   -1.4698   24.0491 H   0  0  0  0  0  0  0  0  0  0  0  0
   31.9096    0.5215   25.3939 H   0  0  0  0  0  0  0  0  0  0  0  0
   33.5706    1.0143   25.3048 H   0  0  0  0  0  0  0  0  0  0  0  0
   31.9284    1.6095   27.4105 H   0  0  0  0  0  0  0  0  0  0  0  0
   33.6359    1.5433   27.5681 H   0  0  0  0  0  0  0  0  0  0  0  0
   33.0522   -0.1572   29.1341 H   0  0  0  0  0  0  0  0  0  0  0  0
   32.7738   -2.2940   27.4774 H   0  0  0  0  0  0  0  0  0  0  0  0
   34.3101   -1.5153   27.6830 H   0  0  0  0  0  0  0  0  0  0  0  0
  1  2  1  0  0  0  0
  1 37  1  1  0  0  0
  2  3  1  0  0  0  0
  3  4  2  0  0  0  0
  4  5  1  0  0  0  0
  4 38  1  0  0  0  0
  5  6  1  0  0  0  0
  5  7  2  0  0  0  0
  6 12  1  0  0  0  0
  7  8  1  0  0  0  0
  7 39  1  0  0  0  0
  8  9  2  0  0  0  0
  8 40  1  0  0  0  0
  9 10  1  0  0  0  0
  9  3  1  0  0  0  0
 10 11  1  0  0  0  0
 11 21  1  0  0  0  0
 11  1  1  0  0  0  0
 11 41  1  1  0  0  0
 13 14  1  0  0  0  0
 13 20  1  0  0  0  0
 14 15  2  0  0  0  0
 15 16  1  0  0  0  0
 15 42  1  0  0  0  0
 16 17  2  0  0  0  0
 16 43  1  0  0  0  0
 17  1  1  0  0  0  0
 17 18  1  0  0  0  0
 18 19  2  0  0  0  0
 18 44  1  0  0  0  0
 19 14  1  0  0  0  0
 19 45  1  0  0  0  0
 21 22  2  0  0  0  0
 22 23  1  0  0  0  0
 22 46  1  0  0  0  0
 23 24  2  0  0  0  0
 23 47  1  0  0  0  0
 24 27  1  0  0  0  0
 24 25  1  0  0  0  0
 25 26  2  0  0  0  0
 25 48  1  0  0  0  0
 26 21  1  0  0  0  0
 26 49  1  0  0  0  0
 27 28  1  0  0  0  0
 28 29  1  0  0  0  0
 28 50  1  0  0  0  0
 28 51  1  0  0  0  0
 29 30  1  0  0  0  0
 29 52  1  0  0  0  0
 29 53  1  0  0  0  0
 30 31  1  0  0  0  0
 31 32  1  0  0  0  0
 31 54  1  0  0  0  0
 31 55  1  0  0  0  0
 32 33  1  0  0  0  0
 32 56  1  0  0  0  0
 32 57  1  0  0  0  0
 33 34  1  0  0  0  0
 33 35  1  0  0  0  0
 33 58  1  1  0  0  0
 34 36  1  0  0  0  0
 35 30  1  0  0  0  0
 35 59  1  0  0  0  0
 35 60  1  0  0  0  0
M  END
>  <minimizedAffinity>
-8.30197

$$$$
CHEMBL362718
 OpenBabel01042214213D

 60 64  0  0  0  0  0  0  0  0999 V2000
   33.7943   -4.6720   20.5879 C   0  0  1  0  0  0  0  0  0  0  0  0
   35.0471   -5.5527   19.5958 S   0  0  0  0  0  0  0  0  0  0  0  0
   35.9474   -4.0778   19.1177 C   0  0  0  0  0  0  0  0  0  0  0  0
   36.5110   -4.0147   17.8374 C   0  0  0  0  0  0  0  0  0  0  0  0
   37.2819   -2.9075   17.4588 C   0  0  0  0  0  0  0  0  0  0  0  0
   37.8556   -2.8408   16.1912 O   0  0  0  0  0  0  0  0  0  0  0  0
   37.4821   -1.8607   18.3630 C   0  0  0  0  0  0  0  0  0  0  0  0
   36.8982   -1.9080   19.6317 C   0  0  0  0  0  0  0  0  0  0  0  0
   36.1123   -3.0025   20.0100 C   0  0  0  0  0  0  0  0  0  0  0  0
   35.4492   -2.9519   21.2438 O   0  0  0  0  0  0  0  0  0  0  0  0
   34.5271   -3.9310   21.7412 C   0  0  1  0  0  0  0  0  0  0  0  0
   37.7273   -3.5820   15.5122 H   0  0  0  0  0  0  0  0  0  0  0  0
   30.1853   -1.6641   17.2915 O   0  0  0  0  0  0  0  0  0  0  0  0
   31.0677   -2.3885   18.0895 C   0  0  0  0  0  0  0  0  0  0  0  0
   32.4359   -2.3554   17.8116 C   0  0  0  0  0  0  0  0  0  0  0  0
   33.3351   -3.0776   18.6015 C   0  0  0  0  0  0  0  0  0  0  0  0
   32.8742   -3.8503   19.6893 C   0  0  0  0  0  0  0  0  0  0  0  0
   31.4934   -3.8698   19.9599 C   0  0  0  0  0  0  0  0  0  0  0  0
   30.5980   -3.1475   19.1669 C   0  0  0  0  0  0  0  0  0  0  0  0
   29.1873   -1.6679   17.4675 H   0  0  0  0  0  0  0  0  0  0  0  0
   33.6276   -3.2876   22.7915 C   0  0  0  0  0  0  0  0  0  0  0  0
   32.7137   -2.2526   22.4984 C   0  0  0  0  0  0  0  0  0  0  0  0
   31.8975   -1.7193   23.4994 C   0  0  0  0  0  0  0  0  0  0  0  0
   31.9553   -2.2122   24.8052 C   0  0  0  0  0  0  0  0  0  0  0  0
   32.8408   -3.2620   25.1018 C   0  0  0  0  0  0  0  0  0  0  0  0
   33.6591   -3.7966   24.1033 C   0  0  0  0  0  0  0  0  0  0  0  0
   31.1191   -1.6357   25.7713 O   0  0  0  0  0  0  0  0  0  0  0  0
   31.5783   -0.9683   26.9444 C   0  0  0  0  0  0  0  0  0  0  0  0
   30.8656    0.3805   27.0962 C   0  0  0  0  0  0  0  0  0  0  0  0
   29.9938    0.4240   28.2955 N   0  0  0  0  0  0  0  0  0  0  0  0
   29.6160   -0.9294   28.7821 C   0  0  0  0  0  0  0  0  0  0  0  0
   28.1569   -1.3268   28.4977 C   0  0  0  0  0  0  0  0  0  0  0  0
   27.6630   -0.8431   26.8156 S   0  0  0  0  0  0  0  0  0  0  0  0
   27.8585    0.9635   27.0632 C   0  0  0  0  0  0  0  0  0  0  0  0
   28.8412    1.3456   28.1865 C   0  0  0  0  0  0  0  0  0  0  0  0
   33.1057   -5.3324   21.0723 H   0  0  0  0  0  0  0  0  0  0  0  0
   36.3580   -4.7868   17.1699 H   0  0  0  0  0  0  0  0  0  0  0  0
   38.0624   -1.0511   18.0931 H   0  0  0  0  0  0  0  0  0  0  0  0
   37.0475   -1.1308   20.2940 H   0  0  0  0  0  0  0  0  0  0  0  0
   35.0510   -4.7178   22.2426 H   0  0  0  0  0  0  0  0  0  0  0  0
   32.7851   -1.7947   17.0187 H   0  0  0  0  0  0  0  0  0  0  0  0
   34.3442   -3.0456   18.3877 H   0  0  0  0  0  0  0  0  0  0  0  0
   31.1376   -4.4246   20.7541 H   0  0  0  0  0  0  0  0  0  0  0  0
   29.5878   -3.1739   19.3764 H   0  0  0  0  0  0  0  0  0  0  0  0
   32.6477   -1.8863   21.5358 H   0  0  0  0  0  0  0  0  0  0  0  0
   31.2449   -0.9530   23.2715 H   0  0  0  0  0  0  0  0  0  0  0  0
   32.8870   -3.6398   26.0611 H   0  0  0  0  0  0  0  0  0  0  0  0
   34.2959   -4.5761   24.3310 H   0  0  0  0  0  0  0  0  0  0  0  0
   32.6330   -0.8047   26.8686 H   0  0  0  0  0  0  0  0  0  0  0  0
   31.3646   -1.5755   27.7991 H   0  0  0  0  0  0  0  0  0  0  0  0
   30.2648    0.5521   26.2275 H   0  0  0  0  0  0  0  0  0  0  0  0
   31.6148    1.1361   27.2082 H   0  0  0  0  0  0  0  0  0  0  0  0
   29.7699   -0.9587   29.8406 H   0  0  0  0  0  0  0  0  0  0  0  0
   30.2298   -1.6258   28.2500 H   0  0  0  0  0  0  0  0  0  0  0  0
   27.5178   -0.8388   29.2036 H   0  0  0  0  0  0  0  0  0  0  0  0
   28.0709   -2.3898   28.5849 H   0  0  0  0  0  0  0  0  0  0  0  0
   26.9000    1.3749   27.3019 H   0  0  0  0  0  0  0  0  0  0  0  0
   28.2640    1.3558   26.1540 H   0  0  0  0  0  0  0  0  0  0  0  0
   28.3125    1.3394   29.1167 H   0  0  0  0  0  0  0  0  0  0  0  0
   29.2311    2.3136   27.9503 H   0  0  0  0  0  0  0  0  0  0  0  0
  1  2  1  0  0  0  0
  1 36  1  1  0  0  0
  2  3  1  0  0  0  0
  3  4  2  0  0  0  0
  4  5  1  0  0  0  0
  4 37  1  0  0  0  0
  5  6  1  0  0  0  0
  5  7  2  0  0  0  0
  6 12  1  0  0  0  0
  7  8  1  0  0  0  0
  7 38  1  0  0  0  0
  8  9  2  0  0  0  0
  8 39  1  0  0  0  0
  9 10  1  0  0  0  0
  9  3  1  0  0  0  0
 10 11  1  0  0  0  0
 11 21  1  0  0  0  0
 11  1  1  0  0  0  0
 11 40  1  1  0  0  0
 13 14  1  0  0  0  0
 13 20  1  0  0  0  0
 14 15  2  0  0  0  0
 15 16  1  0  0  0  0
 15 41  1  0  0  0  0
 16 17  2  0  0  0  0
 16 42  1  0  0  0  0
 17  1  1  0  0  0  0
 17 18  1  0  0  0  0
 18 19  2  0  0  0  0
 18 43  1  0  0  0  0
 19 14  1  0  0  0  0
 19 44  1  0  0  0  0
 21 22  2  0  0  0  0
 22 23  1  0  0  0  0
 22 45  1  0  0  0  0
 23 24  2  0  0  0  0
 23 46  1  0  0  0  0
 24 27  1  0  0  0  0
 24 25  1  0  0  0  0
 25 26  2  0  0  0  0
 25 47  1  0  0  0  0
 26 21  1  0  0  0  0
 26 48  1  0  0  0  0
 27 28  1  0  0  0  0
 28 29  1  0  0  0  0
 28 49  1  0  0  0  0
 28 50  1  0  0  0  0
 29 30  1  0  0  0  0
 29 51  1  0  0  0  0
 29 52  1  0  0  0  0
 30 31  1  0  0  0  0
 31 32  1  0  0  0  0
 31 53  1  0  0  0  0
 31 54  1  0  0  0  0
 32 33  1  0  0  0  0
 32 55  1  0  0  0  0
 32 56  1  0  0  0  0
 33 34  1  0  0  0  0
 34 35  1  0  0  0  0
 34 57  1  0  0  0  0
 34 58  1  0  0  0  0
 35 30  1  0  0  0  0
 35 59  1  0  0  0  0
 35 60  1  0  0  0  0
M  END
>  <minimizedAffinity>
-8.31460

$$$$
CHEMBL185114
 OpenBabel01042214213D

 60 64  0  0  0  0  0  0  0  0999 V2000
   37.2588   -3.8858   18.7277 C   0  0  1  0  0  0  0  0  0  0  0  0
   38.7610   -3.6222   17.7208 S   0  0  0  0  0  0  0  0  0  0  0  0
   38.6560   -1.8384   17.5230 C   0  0  0  0  0  0  0  0  0  0  0  0
   39.2916   -1.2630   16.4145 C   0  0  0  0  0  0  0  0  0  0  0  0
   39.2856    0.1263   16.2312 C   0  0  0  0  0  0  0  0  0  0  0  0
   39.9141    0.7030   15.1277 O   0  0  0  0  0  0  0  0  0  0  0  0
   38.6459    0.9444   17.1645 C   0  0  0  0  0  0  0  0  0  0  0  0
   37.9771    0.3768   18.2535 C   0  0  0  0  0  0  0  0  0  0  0  0
   37.9696   -1.0116   18.4359 C   0  0  0  0  0  0  0  0  0  0  0  0
   37.2022   -1.5313   19.4802 O   0  0  0  0  0  0  0  0  0  0  0  0
   37.1972   -2.8905   19.9057 C   0  0  1  0  0  0  0  0  0  0  0  0
   40.4130    0.1372   14.4461 H   0  0  0  0  0  0  0  0  0  0  0  0
   32.5513   -4.2583   15.4714 O   0  0  0  0  0  0  0  0  0  0  0  0
   33.6912   -4.1676   16.2671 C   0  0  0  0  0  0  0  0  0  0  0  0
   34.5756   -3.0930   16.1273 C   0  0  0  0  0  0  0  0  0  0  0  0
   35.7108   -3.0065   16.9348 C   0  0  0  0  0  0  0  0  0  0  0  0
   35.9823   -3.9940   17.9021 C   0  0  0  0  0  0  0  0  0  0  0  0
   35.0905   -5.0770   18.0263 C   0  0  0  0  0  0  0  0  0  0  0  0
   33.9518   -5.1583   17.2161 C   0  0  0  0  0  0  0  0  0  0  0  0
   32.3458   -3.5577   14.7666 H   0  0  0  0  0  0  0  0  0  0  0  0
   35.9871   -3.1496   20.7802 C   0  0  0  0  0  0  0  0  0  0  0  0
   36.0561   -4.0624   21.8488 C   0  0  0  0  0  0  0  0  0  0  0  0
   34.9407   -4.2942   22.6538 C   0  0  0  0  0  0  0  0  0  0  0  0
   33.7404   -3.5952   22.4265 C   0  0  0  0  0  0  0  0  0  0  0  0
   33.6911   -2.6439   21.3979 C   0  0  0  0  0  0  0  0  0  0  0  0
   34.8012   -2.4216   20.5793 C   0  0  0  0  0  0  0  0  0  0  0  0
   32.5834   -3.8073   23.1961 O   0  0  0  0  0  0  0  0  0  0  0  0
   32.4097   -3.4133   24.5584 C   0  0  0  0  0  0  0  0  0  0  0  0
   32.4063   -1.8704   24.6681 C   0  0  0  0  0  0  0  0  0  0  0  0
   31.2638   -1.2997   25.4212 N   0  0  0  0  0  0  0  0  0  0  0  0
   30.5368   -2.2792   26.2464 C   0  0  0  0  0  0  0  0  0  0  0  0
   30.2743   -1.6383   27.6023 C   0  0  0  0  0  0  0  0  0  0  0  0
   31.2969   -0.5262   27.7140 C   0  0  1  0  0  0  0  0  0  0  0  0
   32.4607   -1.0173   28.3286 O   0  0  0  0  0  0  0  0  0  0  0  0
   31.5867   -0.1393   26.2675 C   0  0  0  0  0  0  0  0  0  0  0  0
   32.9386   -0.2256   28.6844 H   0  0  0  0  0  0  0  0  0  0  0  0
   37.3338   -4.8560   19.1727 H   0  0  0  0  0  0  0  0  0  0  0  0
   39.7682   -1.8676   15.7272 H   0  0  0  0  0  0  0  0  0  0  0  0
   38.6667    1.9699   17.0504 H   0  0  0  0  0  0  0  0  0  0  0  0
   37.4859    0.9850   18.9271 H   0  0  0  0  0  0  0  0  0  0  0  0
   38.0870   -3.0537   20.4771 H   0  0  0  0  0  0  0  0  0  0  0  0
   34.3880   -2.3612   15.4243 H   0  0  0  0  0  0  0  0  0  0  0  0
   36.3581   -2.2107   16.8220 H   0  0  0  0  0  0  0  0  0  0  0  0
   35.2781   -5.8171   18.7206 H   0  0  0  0  0  0  0  0  0  0  0  0
   33.3024   -5.9535   17.3206 H   0  0  0  0  0  0  0  0  0  0  0  0
   36.9380   -4.5638   22.0383 H   0  0  0  0  0  0  0  0  0  0  0  0
   34.9959   -4.9825   23.4208 H   0  0  0  0  0  0  0  0  0  0  0  0
   32.8262   -2.1024   21.2439 H   0  0  0  0  0  0  0  0  0  0  0  0
   34.7505   -1.7201   19.8240 H   0  0  0  0  0  0  0  0  0  0  0  0
   33.2118   -3.8083   25.1463 H   0  0  0  0  0  0  0  0  0  0  0  0
   31.4754   -3.7923   24.9166 H   0  0  0  0  0  0  0  0  0  0  0  0
   32.3858   -1.4670   23.6773 H   0  0  0  0  0  0  0  0  0  0  0  0
   33.2874   -1.6069   25.2151 H   0  0  0  0  0  0  0  0  0  0  0  0
   31.1281   -3.1625   26.3692 H   0  0  0  0  0  0  0  0  0  0  0  0
   29.6153   -2.5540   25.7771 H   0  0  0  0  0  0  0  0  0  0  0  0
   30.4076   -2.3523   28.3880 H   0  0  0  0  0  0  0  0  0  0  0  0
   29.2721   -1.2732   27.6874 H   0  0  0  0  0  0  0  0  0  0  0  0
   30.9540    0.3024   28.2977 H   0  0  0  0  0  0  0  0  0  0  0  0
   32.6202    0.1152   26.1583 H   0  0  0  0  0  0  0  0  0  0  0  0
   30.9999    0.7085   25.9813 H   0  0  0  0  0  0  0  0  0  0  0  0
  1  2  1  0  0  0  0
  1 37  1  1  0  0  0
  2  3  1  0  0  0  0
  3  4  2  0  0  0  0
  4  5  1  0  0  0  0
  4 38  1  0  0  0  0
  5  6  1  0  0  0  0
  5  7  2  0  0  0  0
  6 12  1  0  0  0  0
  7  8  1  0  0  0  0
  7 39  1  0  0  0  0
  8  9  2  0  0  0  0
  8 40  1  0  0  0  0
  9 10  1  0  0  0  0
  9  3  1  0  0  0  0
 10 11  1  0  0  0  0
 11 21  1  0  0  0  0
 11  1  1  0  0  0  0
 11 41  1  1  0  0  0
 13 14  1  0  0  0  0
 13 20  1  0  0  0  0
 14 15  2  0  0  0  0
 15 16  1  0  0  0  0
 15 42  1  0  0  0  0
 16 17  2  0  0  0  0
 16 43  1  0  0  0  0
 17  1  1  0  0  0  0
 17 18  1  0  0  0  0
 18 19  2  0  0  0  0
 18 44  1  0  0  0  0
 19 14  1  0  0  0  0
 19 45  1  0  0  0  0
 21 22  2  0  0  0  0
 22 23  1  0  0  0  0
 22 46  1  0  0  0  0
 23 24  2  0  0  0  0
 23 47  1  0  0  0  0
 24 27  1  0  0  0  0
 24 25  1  0  0  0  0
 25 26  2  0  0  0  0
 25 48  1  0  0  0  0
 26 21  1  0  0  0  0
 26 49  1  0  0  0  0
 27 28  1  0  0  0  0
 28 29  1  0  0  0  0
 28 50  1  0  0  0  0
 28 51  1  0  0  0  0
 29 30  1  0  0  0  0
 29 52  1  0  0  0  0
 29 53  1  0  0  0  0
 30 31  1  0  0  0  0
 31 32  1  0  0  0  0
 31 54  1  0  0  0  0
 31 55  1  0  0  0  0
 32 33  1  0  0  0  0
 32 56  1  0  0  0  0
 32 57  1  0  0  0  0
 33 34  1  0  0  0  0
 33 35  1  0  0  0  0
 33 58  1  1  0  0  0
 34 36  1  0  0  0  0
 35 30  1  0  0  0  0
 35 59  1  0  0  0  0
 35 60  1  0  0  0  0
M  END
>  <minimizedAffinity>
-8.31915

$$$$
CHEMBL362718
 OpenBabel01042214213D

 60 64  0  0  0  0  0  0  0  0999 V2000
   37.1142   -3.8138   18.5316 C   0  0  1  0  0  0  0  0  0  0  0  0
   38.3904   -3.1757   17.3943 S   0  0  0  0  0  0  0  0  0  0  0  0
   37.3226   -1.9709   16.6053 C   0  0  0  0  0  0  0  0  0  0  0  0
   37.4823   -1.7189   15.2372 C   0  0  0  0  0  0  0  0  0  0  0  0
   36.7135   -0.7317   14.6063 C   0  0  0  0  0  0  0  0  0  0  0  0
   36.8731   -0.4663   13.2482 O   0  0  0  0  0  0  0  0  0  0  0  0
   35.7800   -0.0015   15.3473 C   0  0  0  0  0  0  0  0  0  0  0  0
   35.5987   -0.2697   16.7067 C   0  0  0  0  0  0  0  0  0  0  0  0
   36.3504   -1.2665   17.3391 C   0  0  0  0  0  0  0  0  0  0  0  0
   36.0508   -1.5828   18.6712 O   0  0  0  0  0  0  0  0  0  0  0  0
   36.6451   -2.6401   19.4364 C   0  0  1  0  0  0  0  0  0  0  0  0
   37.5395   -0.9795   12.6831 H   0  0  0  0  0  0  0  0  0  0  0  0
   33.2072   -6.7191   15.4929 O   0  0  0  0  0  0  0  0  0  0  0  0
   34.1516   -6.0166   16.2380 C   0  0  0  0  0  0  0  0  0  0  0  0
   33.8209   -5.5572   17.5146 C   0  0  0  0  0  0  0  0  0  0  0  0
   34.7562   -4.8493   18.2751 C   0  0  0  0  0  0  0  0  0  0  0  0
   36.0460   -4.5881   17.7645 C   0  0  0  0  0  0  0  0  0  0  0  0
   36.3661   -5.0617   16.4786 C   0  0  0  0  0  0  0  0  0  0  0  0
   35.4277   -5.7675   15.7213 C   0  0  0  0  0  0  0  0  0  0  0  0
   33.4168   -7.0652   14.5639 H   0  0  0  0  0  0  0  0  0  0  0  0
   35.7115   -3.0192   20.5813 C   0  0  0  0  0  0  0  0  0  0  0  0
   36.0897   -3.8770   21.6364 C   0  0  0  0  0  0  0  0  0  0  0  0
   35.1974   -4.1681   22.6717 C   0  0  0  0  0  0  0  0  0  0  0  0
   33.9208   -3.6014   22.6937 C   0  0  0  0  0  0  0  0  0  0  0  0
   33.5439   -2.7234   21.6636 C   0  0  0  0  0  0  0  0  0  0  0  0
   34.4335   -2.4312   20.6264 C   0  0  0  0  0  0  0  0  0  0  0  0
   33.0639   -3.9334   23.7523 O   0  0  0  0  0  0  0  0  0  0  0  0
   33.1667   -3.4051   25.0724 C   0  0  0  0  0  0  0  0  0  0  0  0
   32.7213   -1.9384   25.0890 C   0  0  0  0  0  0  0  0  0  0  0  0
   32.1944   -1.5256   26.4128 N   0  0  0  0  0  0  0  0  0  0  0  0
   31.3478   -0.3053   26.3405 C   0  0  0  0  0  0  0  0  0  0  0  0
   32.0106    0.9666   26.8978 C   0  0  0  0  0  0  0  0  0  0  0  0
   33.7466    1.0854   26.3689 S   0  0  0  0  0  0  0  0  0  0  0  0
   34.3191   -0.4322   27.2250 C   0  0  0  0  0  0  0  0  0  0  0  0
   33.2086   -1.4670   27.4888 C   0  0  0  0  0  0  0  0  0  0  0  0
   37.4892   -4.5548   19.2062 H   0  0  0  0  0  0  0  0  0  0  0  0
   38.1690   -2.2624   14.6913 H   0  0  0  0  0  0  0  0  0  0  0  0
   35.2235    0.7373   14.8895 H   0  0  0  0  0  0  0  0  0  0  0  0
   34.9059    0.2709   17.2479 H   0  0  0  0  0  0  0  0  0  0  0  0
   37.5531   -2.3064   19.8937 H   0  0  0  0  0  0  0  0  0  0  0  0
   32.8809   -5.7413   17.8987 H   0  0  0  0  0  0  0  0  0  0  0  0
   34.5016   -4.5149   19.2176 H   0  0  0  0  0  0  0  0  0  0  0  0
   37.3058   -4.8855   16.0900 H   0  0  0  0  0  0  0  0  0  0  0  0
   35.6765   -6.1059   14.7786 H   0  0  0  0  0  0  0  0  0  0  0  0
   37.0341   -4.2931   21.6434 H   0  0  0  0  0  0  0  0  0  0  0  0
   35.4846   -4.8086   23.4282 H   0  0  0  0  0  0  0  0  0  0  0  0
   32.6062   -2.2925   21.6730 H   0  0  0  0  0  0  0  0  0  0  0  0
   34.1493   -1.7747   19.8826 H   0  0  0  0  0  0  0  0  0  0  0  0
   34.1828   -3.4702   25.4015 H   0  0  0  0  0  0  0  0  0  0  0  0
   32.5354   -3.9702   25.7259 H   0  0  0  0  0  0  0  0  0  0  0  0
   31.9538   -1.8034   24.3557 H   0  0  0  0  0  0  0  0  0  0  0  0
   33.5774   -1.3336   24.8741 H   0  0  0  0  0  0  0  0  0  0  0  0
   30.4523   -0.4866   26.8973 H   0  0  0  0  0  0  0  0  0  0  0  0
   31.1658   -0.1229   25.3020 H   0  0  0  0  0  0  0  0  0  0  0  0
   31.9719    0.9412   27.9668 H   0  0  0  0  0  0  0  0  0  0  0  0
   31.4819    1.8178   26.5226 H   0  0  0  0  0  0  0  0  0  0  0  0
   34.7422   -0.1473   28.1656 H   0  0  0  0  0  0  0  0  0  0  0  0
   35.0283   -0.9018   26.5759 H   0  0  0  0  0  0  0  0  0  0  0  0
   32.7175   -1.2120   28.4046 H   0  0  0  0  0  0  0  0  0  0  0  0
   33.6763   -2.4282   27.5357 H   0  0  0  0  0  0  0  0  0  0  0  0
  1  2  1  0  0  0  0
  1 36  1  1  0  0  0
  2  3  1  0  0  0  0
  3  4  2  0  0  0  0
  4  5  1  0  0  0  0
  4 37  1  0  0  0  0
  5  6  1  0  0  0  0
  5  7  2  0  0  0  0
  6 12  1  0  0  0  0
  7  8  1  0  0  0  0
  7 38  1  0  0  0  0
  8  9  2  0  0  0  0
  8 39  1  0  0  0  0
  9 10  1  0  0  0  0
  9  3  1  0  0  0  0
 10 11  1  0  0  0  0
 11 21  1  0  0  0  0
 11  1  1  0  0  0  0
 11 40  1  1  0  0  0
 13 14  1  0  0  0  0
 13 20  1  0  0  0  0
 14 15  2  0  0  0  0
 15 16  1  0  0  0  0
 15 41  1  0  0  0  0
 16 17  2  0  0  0  0
 16 42  1  0  0  0  0
 17  1  1  0  0  0  0
 17 18  1  0  0  0  0
 18 19  2  0  0  0  0
 18 43  1  0  0  0  0
 19 14  1  0  0  0  0
 19 44  1  0  0  0  0
 21 22  2  0  0  0  0
 22 23  1  0  0  0  0
 22 45  1  0  0  0  0
 23 24  2  0  0  0  0
 23 46  1  0  0  0  0
 24 27  1  0  0  0  0
 24 25  1  0  0  0  0
 25 26  2  0  0  0  0
 25 47  1  0  0  0  0
 26 21  1  0  0  0  0
 26 48  1  0  0  0  0
 27 28  1  0  0  0  0
 28 29  1  0  0  0  0
 28 49  1  0  0  0  0
 28 50  1  0  0  0  0
 29 30  1  0  0  0  0
 29 51  1  0  0  0  0
 29 52  1  0  0  0  0
 30 31  1  0  0  0  0
 31 32  1  0  0  0  0
 31 53  1  0  0  0  0
 31 54  1  0  0  0  0
 32 33  1  0  0  0  0
 32 55  1  0  0  0  0
 32 56  1  0  0  0  0
 33 34  1  0  0  0  0
 34 35  1  0  0  0  0
 34 57  1  0  0  0  0
 34 58  1  0  0  0  0
 35 30  1  0  0  0  0
 35 59  1  0  0  0  0
 35 60  1  0  0  0  0
M  END
>  <minimizedAffinity>
-8.36220

$$$$
CHEMBL185114
 OpenBabel01042214213D

 60 64  0  0  0  0  0  0  0  0999 V2000
   36.9465   -4.4643   19.9603 C   0  0  1  0  0  0  0  0  0  0  0  0
   38.2235   -4.2289   18.6829 S   0  0  0  0  0  0  0  0  0  0  0  0
   37.0722   -3.7697   17.3936 C   0  0  0  0  0  0  0  0  0  0  0  0
   37.2944   -4.2261   16.0897 C   0  0  0  0  0  0  0  0  0  0  0  0
   36.4541   -3.8242   15.0479 C   0  0  0  0  0  0  0  0  0  0  0  0
   36.6929   -4.2812   13.7557 O   0  0  0  0  0  0  0  0  0  0  0  0
   35.3867   -2.9576   15.3138 C   0  0  0  0  0  0  0  0  0  0  0  0
   35.1475   -2.5211   16.6193 C   0  0  0  0  0  0  0  0  0  0  0  0
   35.9697   -2.9443   17.6694 C   0  0  0  0  0  0  0  0  0  0  0  0
   35.6114   -2.5993   18.9789 O   0  0  0  0  0  0  0  0  0  0  0  0
   36.1864   -3.1273   20.1832 C   0  0  1  0  0  0  0  0  0  0  0  0
   36.0914   -4.0227   12.9819 H   0  0  0  0  0  0  0  0  0  0  0  0
   33.9788   -9.2659   18.9547 O   0  0  0  0  0  0  0  0  0  0  0  0
   34.6944   -8.0955   19.1931 C   0  0  0  0  0  0  0  0  0  0  0  0
   36.0102   -8.1487   19.6535 C   0  0  0  0  0  0  0  0  0  0  0  0
   36.7155   -6.9686   19.8956 C   0  0  0  0  0  0  0  0  0  0  0  0
   36.1143   -5.7128   19.6899 C   0  0  0  0  0  0  0  0  0  0  0  0
   34.7924   -5.6730   19.2097 C   0  0  0  0  0  0  0  0  0  0  0  0
   34.0914   -6.8567   18.9704 C   0  0  0  0  0  0  0  0  0  0  0  0
   34.3892  -10.1802   19.0996 H   0  0  0  0  0  0  0  0  0  0  0  0
   35.1391   -3.2391   21.2820 C   0  0  0  0  0  0  0  0  0  0  0  0
   35.4275   -3.8555   22.5165 C   0  0  0  0  0  0  0  0  0  0  0  0
   34.4564   -3.9383   23.5175 C   0  0  0  0  0  0  0  0  0  0  0  0
   33.1692   -3.4082   23.3033 C   0  0  0  0  0  0  0  0  0  0  0  0
   32.8766   -2.8047   22.0760 C   0  0  0  0  0  0  0  0  0  0  0  0
   33.8450   -2.7311   21.0721 C   0  0  0  0  0  0  0  0  0  0  0  0
   32.1577   -3.4536   24.2758 O   0  0  0  0  0  0  0  0  0  0  0  0
   32.3410   -3.2341   25.6742 C   0  0  0  0  0  0  0  0  0  0  0  0
   31.5980   -1.9709   26.1170 C   0  0  0  0  0  0  0  0  0  0  0  0
   30.1496   -2.0837   25.8601 N   0  0  0  0  0  0  0  0  0  0  0  0
   29.5396   -0.7680   25.6201 C   0  0  0  0  0  0  0  0  0  0  0  0
   28.1833   -0.7410   26.3163 C   0  0  0  0  0  0  0  0  0  0  0  0
   28.0024   -2.1239   26.9117 C   0  0  1  0  0  0  0  0  0  0  0  0
   27.2347   -2.9261   26.0539 O   0  0  0  0  0  0  0  0  0  0  0  0
   29.4151   -2.6680   26.9879 C   0  0  0  0  0  0  0  0  0  0  0  0
   26.2869   -2.7179   26.2480 H   0  0  0  0  0  0  0  0  0  0  0  0
   37.3794   -4.6856   20.9135 H   0  0  0  0  0  0  0  0  0  0  0  0
   38.0831   -4.8630   15.8963 H   0  0  0  0  0  0  0  0  0  0  0  0
   34.7760   -2.6410   14.5445 H   0  0  0  0  0  0  0  0  0  0  0  0
   34.3595   -1.8826   16.8103 H   0  0  0  0  0  0  0  0  0  0  0  0
   36.9284   -2.4270   20.5057 H   0  0  0  0  0  0  0  0  0  0  0  0
   36.4629   -9.0619   19.8154 H   0  0  0  0  0  0  0  0  0  0  0  0
   37.6906   -7.0177   20.2298 H   0  0  0  0  0  0  0  0  0  0  0  0
   34.3381   -4.7633   19.0332 H   0  0  0  0  0  0  0  0  0  0  0  0
   33.1194   -6.8152   18.6260 H   0  0  0  0  0  0  0  0  0  0  0  0
   36.3665   -4.2500   22.6827 H   0  0  0  0  0  0  0  0  0  0  0  0
   34.6831   -4.3897   24.4174 H   0  0  0  0  0  0  0  0  0  0  0  0
   31.9373   -2.4105   21.9107 H   0  0  0  0  0  0  0  0  0  0  0  0
   33.6078   -2.2987   20.1656 H   0  0  0  0  0  0  0  0  0  0  0  0
   33.3849   -3.1196   25.8794 H   0  0  0  0  0  0  0  0  0  0  0  0
   31.9510   -4.0731   26.2117 H   0  0  0  0  0  0  0  0  0  0  0  0
   31.9837   -1.1320   25.5763 H   0  0  0  0  0  0  0  0  0  0  0  0
   31.7457   -1.8433   27.1690 H   0  0  0  0  0  0  0  0  0  0  0  0
   29.4110   -0.6141   24.5691 H   0  0  0  0  0  0  0  0  0  0  0  0
   30.1687    0.0079   26.0035 H   0  0  0  0  0  0  0  0  0  0  0  0
   27.4057   -0.5334   25.6112 H   0  0  0  0  0  0  0  0  0  0  0  0
   28.1382    0.0215   27.0656 H   0  0  0  0  0  0  0  0  0  0  0  0
   27.5024   -2.1053   27.8575 H   0  0  0  0  0  0  0  0  0  0  0  0
   29.4047   -3.7350   26.9089 H   0  0  0  0  0  0  0  0  0  0  0  0
   29.8759   -2.4173   27.9205 H   0  0  0  0  0  0  0  0  0  0  0  0
  1  2  1  0  0  0  0
  1 37  1  1  0  0  0
  2  3  1  0  0  0  0
  3  4  2  0  0  0  0
  4  5  1  0  0  0  0
  4 38  1  0  0  0  0
  5  6  1  0  0  0  0
  5  7  2  0  0  0  0
  6 12  1  0  0  0  0
  7  8  1  0  0  0  0
  7 39  1  0  0  0  0
  8  9  2  0  0  0  0
  8 40  1  0  0  0  0
  9 10  1  0  0  0  0
  9  3  1  0  0  0  0
 10 11  1  0  0  0  0
 11 21  1  0  0  0  0
 11  1  1  0  0  0  0
 11 41  1  1  0  0  0
 13 14  1  0  0  0  0
 13 20  1  0  0  0  0
 14 15  2  0  0  0  0
 15 16  1  0  0  0  0
 15 42  1  0  0  0  0
 16 17  2  0  0  0  0
 16 43  1  0  0  0  0
 17  1  1  0  0  0  0
 17 18  1  0  0  0  0
 18 19  2  0  0  0  0
 18 44  1  0  0  0  0
 19 14  1  0  0  0  0
 19 45  1  0  0  0  0
 21 22  2  0  0  0  0
 22 23  1  0  0  0  0
 22 46  1  0  0  0  0
 23 24  2  0  0  0  0
 23 47  1  0  0  0  0
 24 27  1  0  0  0  0
 24 25  1  0  0  0  0
 25 26  2  0  0  0  0
 25 48  1  0  0  0  0
 26 21  1  0  0  0  0
 26 49  1  0  0  0  0
 27 28  1  0  0  0  0
 28 29  1  0  0  0  0
 28 50  1  0  0  0  0
 28 51  1  0  0  0  0
 29 30  1  0  0  0  0
 29 52  1  0  0  0  0
 29 53  1  0  0  0  0
 30 31  1  0  0  0  0
 31 32  1  0  0  0  0
 31 54  1  0  0  0  0
 31 55  1  0  0  0  0
 32 33  1  0  0  0  0
 32 56  1  0  0  0  0
 32 57  1  0  0  0  0
 33 34  1  0  0  0  0
 33 35  1  0  0  0  0
 33 58  1  1  0  0  0
 34 36  1  0  0  0  0
 35 30  1  0  0  0  0
 35 59  1  0  0  0  0
 35 60  1  0  0  0  0
M  END
>  <minimizedAffinity>
-8.40991

$$$$
CHEMBL185114
 OpenBabel01042214213D

 60 64  0  0  0  0  0  0  0  0999 V2000
   36.4186   -0.7317   15.2271 C   0  0  1  0  0  0  0  0  0  0  0  0
   37.2235   -0.3375   13.6413 S   0  0  0  0  0  0  0  0  0  0  0  0
   38.8128   -1.0179   14.0992 C   0  0  0  0  0  0  0  0  0  0  0  0
   39.9776   -0.3573   13.6931 C   0  0  0  0  0  0  0  0  0  0  0  0
   41.2332   -0.9035   13.9724 C   0  0  0  0  0  0  0  0  0  0  0  0
   42.3815   -0.2379   13.5553 O   0  0  0  0  0  0  0  0  0  0  0  0
   41.3221   -2.1201   14.6602 C   0  0  0  0  0  0  0  0  0  0  0  0
   40.1612   -2.7685   15.0892 C   0  0  0  0  0  0  0  0  0  0  0  0
   38.9035   -2.2101   14.8363 C   0  0  0  0  0  0  0  0  0  0  0  0
   37.7766   -2.8169   15.4057 O   0  0  0  0  0  0  0  0  0  0  0  0
   36.4512   -2.2686   15.4547 C   0  0  1  0  0  0  0  0  0  0  0  0
   43.3069   -0.5984   13.7580 H   0  0  0  0  0  0  0  0  0  0  0  0
   38.3211    2.7746   19.3455 O   0  0  0  0  0  0  0  0  0  0  0  0
   37.8659    1.9176   18.3468 C   0  0  0  0  0  0  0  0  0  0  0  0
   37.0731    2.3988   17.3047 C   0  0  0  0  0  0  0  0  0  0  0  0
   36.6167    1.5290   16.3129 C   0  0  0  0  0  0  0  0  0  0  0  0
   36.9380    0.1593   16.3500 C   0  0  0  0  0  0  0  0  0  0  0  0
   37.7520   -0.3102   17.3971 C   0  0  0  0  0  0  0  0  0  0  0  0
   38.2046    0.5643   18.3871 C   0  0  0  0  0  0  0  0  0  0  0  0
   38.0991    3.7625   19.3417 H   0  0  0  0  0  0  0  0  0  0  0  0
   35.7427   -2.6734   16.7396 C   0  0  0  0  0  0  0  0  0  0  0  0
   36.3333   -3.5638   17.6591 C   0  0  0  0  0  0  0  0  0  0  0  0
   35.6723   -3.9147   18.8388 C   0  0  0  0  0  0  0  0  0  0  0  0
   34.3992   -3.3838   19.1240 C   0  0  0  0  0  0  0  0  0  0  0  0
   33.8061   -2.5077   18.2092 C   0  0  0  0  0  0  0  0  0  0  0  0
   34.4632   -2.1652   17.0252 C   0  0  0  0  0  0  0  0  0  0  0  0
   33.6931   -3.6924   20.2975 O   0  0  0  0  0  0  0  0  0  0  0  0
   33.8610   -3.0484   21.5601 C   0  0  0  0  0  0  0  0  0  0  0  0
   33.5717   -4.0281   22.7004 C   0  0  0  0  0  0  0  0  0  0  0  0
   32.5223   -3.5100   23.5985 N   0  0  0  0  0  0  0  0  0  0  0  0
   32.0942   -2.1595   23.2065 C   0  0  0  0  0  0  0  0  0  0  0  0
   31.8863   -1.3415   24.4763 C   0  0  0  0  0  0  0  0  0  0  0  0
   32.1447   -2.2975   25.6247 C   0  0  1  0  0  0  0  0  0  0  0  0
   30.9346   -2.8257   26.0995 O   0  0  0  0  0  0  0  0  0  0  0  0
   32.9681   -3.4019   24.9922 C   0  0  0  0  0  0  0  0  0  0  0  0
   30.5681   -2.1610   26.7345 H   0  0  0  0  0  0  0  0  0  0  0  0
   35.3769   -0.4877   15.2111 H   0  0  0  0  0  0  0  0  0  0  0  0
   39.9090    0.5381   13.1846 H   0  0  0  0  0  0  0  0  0  0  0  0
   42.2462   -2.5382   14.8504 H   0  0  0  0  0  0  0  0  0  0  0  0
   40.2318   -3.6649   15.5957 H   0  0  0  0  0  0  0  0  0  0  0  0
   35.9103   -2.6906   14.6335 H   0  0  0  0  0  0  0  0  0  0  0  0
   36.8236    3.3995   17.2670 H   0  0  0  0  0  0  0  0  0  0  0  0
   36.0360    1.8951   15.5423 H   0  0  0  0  0  0  0  0  0  0  0  0
   38.0162   -1.3071   17.4337 H   0  0  0  0  0  0  0  0  0  0  0  0
   38.7944    0.2070   19.1549 H   0  0  0  0  0  0  0  0  0  0  0  0
   37.2645   -3.9609   17.4586 H   0  0  0  0  0  0  0  0  0  0  0  0
   36.1186   -4.5655   19.5039 H   0  0  0  0  0  0  0  0  0  0  0  0
   32.8750   -2.1109   18.4107 H   0  0  0  0  0  0  0  0  0  0  0  0
   34.0042   -1.5317   16.3521 H   0  0  0  0  0  0  0  0  0  0  0  0
   33.1861   -2.2207   21.6264 H   0  0  0  0  0  0  0  0  0  0  0  0
   34.8713   -2.7061   21.6440 H   0  0  0  0  0  0  0  0  0  0  0  0
   34.4682   -4.1817   23.2639 H   0  0  0  0  0  0  0  0  0  0  0  0
   33.2291   -4.9487   22.2761 H   0  0  0  0  0  0  0  0  0  0  0  0
   31.1780   -2.2148   22.6566 H   0  0  0  0  0  0  0  0  0  0  0  0
   32.8362   -1.7005   22.5871 H   0  0  0  0  0  0  0  0  0  0  0  0
   30.8847   -0.9676   24.5198 H   0  0  0  0  0  0  0  0  0  0  0  0
   32.5386   -0.4941   24.5124 H   0  0  0  0  0  0  0  0  0  0  0  0
   32.6303   -1.8269   26.4539 H   0  0  0  0  0  0  0  0  0  0  0  0
   32.8029   -4.3261   25.5056 H   0  0  0  0  0  0  0  0  0  0  0  0
   34.0142   -3.1838   25.0474 H   0  0  0  0  0  0  0  0  0  0  0  0
  1  2  1  0  0  0  0
  1 37  1  6  0  0  0
  2  3  1  0  0  0  0
  3  4  2  0  0  0  0
  4  5  1  0  0  0  0
  4 38  1  0  0  0  0
  5  6  1  0  0  0  0
  5  7  2  0  0  0  0
  6 12  1  0  0  0  0
  7  8  1  0  0  0  0
  7 39  1  0  0  0  0
  8  9  2  0  0  0  0
  8 40  1  0  0  0  0
  9 10  1  0  0  0  0
  9  3  1  0  0  0  0
 10 11  1  0  0  0  0
 11 21  1  0  0  0  0
 11  1  1  0  0  0  0
 11 41  1  6  0  0  0
 13 14  1  0  0  0  0
 13 20  1  0  0  0  0
 14 15  2  0  0  0  0
 15 16  1  0  0  0  0
 15 42  1  0  0  0  0
 16 17  2  0  0  0  0
 16 43  1  0  0  0  0
 17  1  1  0  0  0  0
 17 18  1  0  0  0  0
 18 19  2  0  0  0  0
 18 44  1  0  0  0  0
 19 14  1  0  0  0  0
 19 45  1  0  0  0  0
 21 22  2  0  0  0  0
 22 23  1  0  0  0  0
 22 46  1  0  0  0  0
 23 24  2  0  0  0  0
 23 47  1  0  0  0  0
 24 27  1  0  0  0  0
 24 25  1  0  0  0  0
 25 26  2  0  0  0  0
 25 48  1  0  0  0  0
 26 21  1  0  0  0  0
 26 49  1  0  0  0  0
 27 28  1  0  0  0  0
 28 29  1  0  0  0  0
 28 50  1  0  0  0  0
 28 51  1  0  0  0  0
 29 30  1  0  0  0  0
 29 52  1  0  0  0  0
 29 53  1  0  0  0  0
 30 31  1  0  0  0  0
 31 32  1  0  0  0  0
 31 54  1  0  0  0  0
 31 55  1  0  0  0  0
 32 33  1  0  0  0  0
 32 56  1  0  0  0  0
 32 57  1  0  0  0  0
 33 34  1  0  0  0  0
 33 35  1  0  0  0  0
 33 58  1  1  0  0  0
 34 36  1  0  0  0  0
 35 30  1  0  0  0  0
 35 59  1  0  0  0  0
 35 60  1  0  0  0  0
M  END
>  <minimizedAffinity>
-8.42190

$$$$
CHEMBL185114
 OpenBabel01042214213D

 60 64  0  0  0  0  0  0  0  0999 V2000
   36.6756   -3.0733   17.5776 C   0  0  1  0  0  0  0  0  0  0  0  0
   35.8708   -4.1763   18.7924 S   0  0  0  0  0  0  0  0  0  0  0  0
   34.1712   -3.6279   18.5854 C   0  0  0  0  0  0  0  0  0  0  0  0
   33.2857   -3.8194   19.6546 C   0  0  0  0  0  0  0  0  0  0  0  0
   31.9372   -3.4563   19.5369 C   0  0  0  0  0  0  0  0  0  0  0  0
   31.0531   -3.6420   20.5995 O   0  0  0  0  0  0  0  0  0  0  0  0
   31.4713   -2.9045   18.3419 C   0  0  0  0  0  0  0  0  0  0  0  0
   32.3553   -2.6751   17.2830 C   0  0  0  0  0  0  0  0  0  0  0  0
   33.7062   -3.0251   17.3987 C   0  0  0  0  0  0  0  0  0  0  0  0
   34.5642   -2.6809   16.3522 O   0  0  0  0  0  0  0  0  0  0  0  0
   35.9236   -3.0876   16.2297 C   0  0  1  0  0  0  0  0  0  0  0  0
   31.3549   -4.0677   21.4720 H   0  0  0  0  0  0  0  0  0  0  0  0
   37.9628    2.1766   19.4969 O   0  0  0  0  0  0  0  0  0  0  0  0
   37.6486    0.9000   19.0362 C   0  0  0  0  0  0  0  0  0  0  0  0
   38.6323    0.0839   18.4682 C   0  0  0  0  0  0  0  0  0  0  0  0
   38.3095   -1.1969   18.0171 C   0  0  0  0  0  0  0  0  0  0  0  0
   36.9940   -1.6884   18.1283 C   0  0  0  0  0  0  0  0  0  0  0  0
   36.0095   -0.8536   18.6919 C   0  0  0  0  0  0  0  0  0  0  0  0
   36.3384    0.4293   19.1455 C   0  0  0  0  0  0  0  0  0  0  0  0
   38.9046    2.5462   19.4181 H   0  0  0  0  0  0  0  0  0  0  0  0
   36.6262   -2.2255   15.2004 C   0  0  0  0  0  0  0  0  0  0  0  0
   37.7254   -2.7236   14.4769 C   0  0  0  0  0  0  0  0  0  0  0  0
   38.3659   -1.9276   13.5272 C   0  0  0  0  0  0  0  0  0  0  0  0
   37.9019   -0.6264   13.2583 C   0  0  0  0  0  0  0  0  0  0  0  0
   36.7711   -0.1530   13.9385 C   0  0  0  0  0  0  0  0  0  0  0  0
   36.1376   -0.9413   14.9024 C   0  0  0  0  0  0  0  0  0  0  0  0
   38.5242    0.2218   12.3261 O   0  0  0  0  0  0  0  0  0  0  0  0
   39.0029    1.5408   12.5951 C   0  0  0  0  0  0  0  0  0  0  0  0
   38.0633    2.5875   11.9515 C   0  0  0  0  0  0  0  0  0  0  0  0
   37.7644    3.7654   12.8009 N   0  0  0  0  0  0  0  0  0  0  0  0
   36.7443    4.6683   12.2414 C   0  0  0  0  0  0  0  0  0  0  0  0
   35.7925    5.0464   13.3679 C   0  0  0  0  0  0  0  0  0  0  0  0
   35.9654    3.9586   14.4080 C   0  0  1  0  0  0  0  0  0  0  0  0
   35.0446    2.9256   14.1659 O   0  0  0  0  0  0  0  0  0  0  0  0
   37.3896    3.4581   14.1910 C   0  0  0  0  0  0  0  0  0  0  0  0
   34.9529    2.4334   15.0209 H   0  0  0  0  0  0  0  0  0  0  0  0
   37.6464   -3.4731   17.3712 H   0  0  0  0  0  0  0  0  0  0  0  0
   33.6295   -4.2313   20.5361 H   0  0  0  0  0  0  0  0  0  0  0  0
   30.4726   -2.6655   18.2399 H   0  0  0  0  0  0  0  0  0  0  0  0
   32.0099   -2.2451   16.4107 H   0  0  0  0  0  0  0  0  0  0  0  0
   35.9279   -4.1054   15.8997 H   0  0  0  0  0  0  0  0  0  0  0  0
   39.6007    0.4301   18.3823 H   0  0  0  0  0  0  0  0  0  0  0  0
   39.0424   -1.7902   17.5976 H   0  0  0  0  0  0  0  0  0  0  0  0
   35.0373   -1.1906   18.7712 H   0  0  0  0  0  0  0  0  0  0  0  0
   35.6097    1.0296   19.5623 H   0  0  0  0  0  0  0  0  0  0  0  0
   38.0600   -3.6844   14.6500 H   0  0  0  0  0  0  0  0  0  0  0  0
   39.1852   -2.2952   13.0186 H   0  0  0  0  0  0  0  0  0  0  0  0
   36.4030    0.7872   13.7251 H   0  0  0  0  0  0  0  0  0  0  0  0
   35.3076   -0.5795   15.3977 H   0  0  0  0  0  0  0  0  0  0  0  0
   39.9865    1.6503   12.1884 H   0  0  0  0  0  0  0  0  0  0  0  0
   39.0279    1.6958   13.6535 H   0  0  0  0  0  0  0  0  0  0  0  0
   37.1382    2.1037   11.7170 H   0  0  0  0  0  0  0  0  0  0  0  0
   38.5765    2.9615   11.0903 H   0  0  0  0  0  0  0  0  0  0  0  0
   36.2064    4.1714   11.4612 H   0  0  0  0  0  0  0  0  0  0  0  0
   37.2033    5.5426   11.8294 H   0  0  0  0  0  0  0  0  0  0  0  0
   34.7828    5.0720   13.0146 H   0  0  0  0  0  0  0  0  0  0  0  0
   36.0032    6.0181   13.7633 H   0  0  0  0  0  0  0  0  0  0  0  0
   35.8014    4.3035   15.4075 H   0  0  0  0  0  0  0  0  0  0  0  0
   37.4338    2.4017   14.3554 H   0  0  0  0  0  0  0  0  0  0  0  0
   38.0622    3.9329   14.8745 H   0  0  0  0  0  0  0  0  0  0  0  0
  1  2  1  0  0  0  0
  1 37  1  6  0  0  0
  2  3  1  0  0  0  0
  3  4  2  0  0  0  0
  4  5  1  0  0  0  0
  4 38  1  0  0  0  0
  5  6  1  0  0  0  0
  5  7  2  0  0  0  0
  6 12  1  0  0  0  0
  7  8  1  0  0  0  0
  7 39  1  0  0  0  0
  8  9  2  0  0  0  0
  8 40  1  0  0  0  0
  9 10  1  0  0  0  0
  9  3  1  0  0  0  0
 10 11  1  0  0  0  0
 11 21  1  0  0  0  0
 11  1  1  0  0  0  0
 11 41  1  6  0  0  0
 13 14  1  0  0  0  0
 13 20  1  0  0  0  0
 14 15  2  0  0  0  0
 15 16  1  0  0  0  0
 15 42  1  0  0  0  0
 16 17  2  0  0  0  0
 16 43  1  0  0  0  0
 17  1  1  0  0  0  0
 17 18  1  0  0  0  0
 18 19  2  0  0  0  0
 18 44  1  0  0  0  0
 19 14  1  0  0  0  0
 19 45  1  0  0  0  0
 21 22  2  0  0  0  0
 22 23  1  0  0  0  0
 22 46  1  0  0  0  0
 23 24  2  0  0  0  0
 23 47  1  0  0  0  0
 24 27  1  0  0  0  0
 24 25  1  0  0  0  0
 25 26  2  0  0  0  0
 25 48  1  0  0  0  0
 26 21  1  0  0  0  0
 26 49  1  0  0  0  0
 27 28  1  0  0  0  0
 28 29  1  0  0  0  0
 28 50  1  0  0  0  0
 28 51  1  0  0  0  0
 29 30  1  0  0  0  0
 29 52  1  0  0  0  0
 29 53  1  0  0  0  0
 30 31  1  0  0  0  0
 31 32  1  0  0  0  0
 31 54  1  0  0  0  0
 31 55  1  0  0  0  0
 32 33  1  0  0  0  0
 32 56  1  0  0  0  0
 32 57  1  0  0  0  0
 33 34  1  0  0  0  0
 33 35  1  0  0  0  0
 33 58  1  1  0  0  0
 34 36  1  0  0  0  0
 35 30  1  0  0  0  0
 35 59  1  0  0  0  0
 35 60  1  0  0  0  0
M  END
>  <minimizedAffinity>
-8.42418

$$$$
CHEMBL184679
 OpenBabel01042214213D

 59 63  0  0  0  0  0  0  0  0999 V2000
   37.0073   -0.7390   14.6064 C   0  0  1  0  0  0  0  0  0  0  0  0
   37.9766    0.0666   13.2894 S   0  0  0  0  0  0  0  0  0  0  0  0
   39.5567   -0.5881   13.8293 C   0  0  0  0  0  0  0  0  0  0  0  0
   40.6932    0.2242   13.7450 C   0  0  0  0  0  0  0  0  0  0  0  0
   41.9522   -0.2867   14.0869 C   0  0  0  0  0  0  0  0  0  0  0  0
   43.0922    0.5093   13.9858 O   0  0  0  0  0  0  0  0  0  0  0  0
   42.0712   -1.6120   14.5143 C   0  0  0  0  0  0  0  0  0  0  0  0
   40.9350   -2.4173   14.6253 C   0  0  0  0  0  0  0  0  0  0  0  0
   39.6708   -1.9058   14.3100 C   0  0  0  0  0  0  0  0  0  0  0  0
   38.5465   -2.7033   14.5653 O   0  0  0  0  0  0  0  0  0  0  0  0
   37.1782   -2.2791   14.4849 C   0  0  1  0  0  0  0  0  0  0  0  0
   43.0394    1.4756   13.6791 H   0  0  0  0  0  0  0  0  0  0  0  0
   38.0392    1.9574   19.5660 O   0  0  0  0  0  0  0  0  0  0  0  0
   37.7789    1.2854   18.3730 C   0  0  0  0  0  0  0  0  0  0  0  0
   36.8291    1.7748   17.4692 C   0  0  0  0  0  0  0  0  0  0  0  0
   36.5836    1.0950   16.2727 C   0  0  0  0  0  0  0  0  0  0  0  0
   37.2805   -0.0876   15.9576 C   0  0  0  0  0  0  0  0  0  0  0  0
   38.2404   -0.5668   16.8743 C   0  0  0  0  0  0  0  0  0  0  0  0
   38.4778    0.1124   18.0741 C   0  0  0  0  0  0  0  0  0  0  0  0
   37.5793    2.8308   19.7971 H   0  0  0  0  0  0  0  0  0  0  0  0
   36.3114   -3.0397   15.4758 C   0  0  0  0  0  0  0  0  0  0  0  0
   36.7375   -4.2508   16.0525 C   0  0  0  0  0  0  0  0  0  0  0  0
   35.9106   -4.9509   16.9355 C   0  0  0  0  0  0  0  0  0  0  0  0
   34.6391   -4.4504   17.2674 C   0  0  0  0  0  0  0  0  0  0  0  0
   34.2184   -3.2397   16.7068 C   0  0  0  0  0  0  0  0  0  0  0  0
   35.0368   -2.5475   15.8096 C   0  0  0  0  0  0  0  0  0  0  0  0
   33.7664   -5.1162   18.1444 O   0  0  0  0  0  0  0  0  0  0  0  0
   33.1881   -4.5475   19.3205 C   0  0  0  0  0  0  0  0  0  0  0  0
   33.9813   -4.9707   20.5626 C   0  0  0  0  0  0  0  0  0  0  0  0
   34.9713   -3.9383   20.9295 N   0  0  0  0  0  0  0  0  0  0  0  0
   34.6516   -2.6072   20.3747 C   0  0  0  0  0  0  0  0  0  0  0  0
   35.9584   -1.9775   19.8846 C   0  0  0  0  0  0  0  0  0  0  0  0
   37.0472   -2.9653   20.2610 C   0  0  1  0  0  0  0  0  0  0  0  0
   37.6241   -2.5943   21.4667 F   0  0  0  0  0  0  0  0  0  0  0  0
   36.3079   -4.2783   20.4253 C   0  0  0  0  0  0  0  0  0  0  0  0
   35.9545   -0.5829   14.4966 H   0  0  0  0  0  0  0  0  0  0  0  0
   40.6036    1.2028   13.4299 H   0  0  0  0  0  0  0  0  0  0  0  0
   42.9999   -1.9964   14.7483 H   0  0  0  0  0  0  0  0  0  0  0  0
   41.0283   -3.3952   14.9417 H   0  0  0  0  0  0  0  0  0  0  0  0
   36.8357   -2.5232   13.5010 H   0  0  0  0  0  0  0  0  0  0  0  0
   36.3089    2.6392   17.6865 H   0  0  0  0  0  0  0  0  0  0  0  0
   35.8825    1.4645   15.6116 H   0  0  0  0  0  0  0  0  0  0  0  0
   38.7714   -1.4249   16.6580 H   0  0  0  0  0  0  0  0  0  0  0  0
   39.1731   -0.2548   18.7425 H   0  0  0  0  0  0  0  0  0  0  0  0
   37.6706   -4.6260   15.8209 H   0  0  0  0  0  0  0  0  0  0  0  0
   36.2351   -5.8403   17.3463 H   0  0  0  0  0  0  0  0  0  0  0  0
   33.2948   -2.8539   16.9581 H   0  0  0  0  0  0  0  0  0  0  0  0
   34.7026   -1.6668   15.3880 H   0  0  0  0  0  0  0  0  0  0  0  0
   32.1773   -4.8853   19.4154 H   0  0  0  0  0  0  0  0  0  0  0  0
   33.2125   -3.4809   19.2391 H   0  0  0  0  0  0  0  0  0  0  0  0
   34.4914   -5.8886   20.3572 H   0  0  0  0  0  0  0  0  0  0  0  0
   33.3000   -5.0976   21.3778 H   0  0  0  0  0  0  0  0  0  0  0  0
   34.2135   -1.9925   21.1331 H   0  0  0  0  0  0  0  0  0  0  0  0
   33.9544   -2.6965   19.5679 H   0  0  0  0  0  0  0  0  0  0  0  0
   36.1241   -1.0363   20.3658 H   0  0  0  0  0  0  0  0  0  0  0  0
   35.9389   -1.7886   18.8316 H   0  0  0  0  0  0  0  0  0  0  0  0
   37.8320   -3.0172   19.5356 H   0  0  0  0  0  0  0  0  0  0  0  0
   36.8191   -4.9063   21.1248 H   0  0  0  0  0  0  0  0  0  0  0  0
   36.2503   -4.8108   19.4990 H   0  0  0  0  0  0  0  0  0  0  0  0
  1  2  1  0  0  0  0
  1 36  1  6  0  0  0
  2  3  1  0  0  0  0
  3  4  2  0  0  0  0
  4  5  1  0  0  0  0
  4 37  1  0  0  0  0
  5  6  1  0  0  0  0
  5  7  2  0  0  0  0
  6 12  1  0  0  0  0
  7  8  1  0  0  0  0
  7 38  1  0  0  0  0
  8  9  2  0  0  0  0
  8 39  1  0  0  0  0
  9 10  1  0  0  0  0
  9  3  1  0  0  0  0
 10 11  1  0  0  0  0
 11 21  1  0  0  0  0
 11  1  1  0  0  0  0
 11 40  1  6  0  0  0
 13 14  1  0  0  0  0
 13 20  1  0  0  0  0
 14 15  2  0  0  0  0
 15 16  1  0  0  0  0
 15 41  1  0  0  0  0
 16 17  2  0  0  0  0
 16 42  1  0  0  0  0
 17  1  1  0  0  0  0
 17 18  1  0  0  0  0
 18 19  2  0  0  0  0
 18 43  1  0  0  0  0
 19 14  1  0  0  0  0
 19 44  1  0  0  0  0
 21 22  2  0  0  0  0
 22 23  1  0  0  0  0
 22 45  1  0  0  0  0
 23 24  2  0  0  0  0
 23 46  1  0  0  0  0
 24 27  1  0  0  0  0
 24 25  1  0  0  0  0
 25 26  2  0  0  0  0
 25 47  1  0  0  0  0
 26 21  1  0  0  0  0
 26 48  1  0  0  0  0
 27 28  1  0  0  0  0
 28 29  1  0  0  0  0
 28 49  1  0  0  0  0
 28 50  1  0  0  0  0
 29 30  1  0  0  0  0
 29 51  1  0  0  0  0
 29 52  1  0  0  0  0
 30 31  1  0  0  0  0
 31 32  1  0  0  0  0
 31 53  1  0  0  0  0
 31 54  1  0  0  0  0
 32 33  1  0  0  0  0
 32 55  1  0  0  0  0
 32 56  1  0  0  0  0
 33 34  1  0  0  0  0
 33 35  1  0  0  0  0
 33 57  1  6  0  0  0
 35 30  1  0  0  0  0
 35 58  1  0  0  0  0
 35 59  1  0  0  0  0
M  END
>  <minimizedAffinity>
-8.44385

$$$$
CHEMBL185114
 OpenBabel01042214213D

 60 64  0  0  0  0  0  0  0  0999 V2000
   37.3587    0.9275   17.9151 C   0  0  1  0  0  0  0  0  0  0  0  0
   37.8950    2.6683   17.9232 S   0  0  0  0  0  0  0  0  0  0  0  0
   36.8618    3.1567   16.5475 C   0  0  0  0  0  0  0  0  0  0  0  0
   37.3643    4.0643   15.6086 C   0  0  0  0  0  0  0  0  0  0  0  0
   36.5554    4.5208   14.5645 C   0  0  0  0  0  0  0  0  0  0  0  0
   37.0679    5.4288   13.6433 O   0  0  0  0  0  0  0  0  0  0  0  0
   35.2344    4.0673   14.4622 C   0  0  0  0  0  0  0  0  0  0  0  0
   34.7386    3.1413   15.3835 C   0  0  0  0  0  0  0  0  0  0  0  0
   35.5546    2.6605   16.4134 C   0  0  0  0  0  0  0  0  0  0  0  0
   35.0659    1.6301   17.2269 O   0  0  0  0  0  0  0  0  0  0  0  0
   35.8269    0.8580   18.1673 C   0  0  1  0  0  0  0  0  0  0  0  0
   36.5128    5.7651   12.8646 H   0  0  0  0  0  0  0  0  0  0  0  0
   39.6001   -1.8875   13.4512 O   0  0  0  0  0  0  0  0  0  0  0  0
   39.0513   -1.1987   14.5297 C   0  0  0  0  0  0  0  0  0  0  0  0
   39.7158   -1.1522   15.7554 C   0  0  0  0  0  0  0  0  0  0  0  0
   39.1525   -0.4644   16.8317 C   0  0  0  0  0  0  0  0  0  0  0  0
   37.9092    0.1826   16.7041 C   0  0  0  0  0  0  0  0  0  0  0  0
   37.2572    0.1422   15.4580 C   0  0  0  0  0  0  0  0  0  0  0  0
   37.8248   -0.5483   14.3853 C   0  0  0  0  0  0  0  0  0  0  0  0
   40.4910   -2.3637   13.5210 H   0  0  0  0  0  0  0  0  0  0  0  0
   35.3203   -0.5760   18.2295 C   0  0  0  0  0  0  0  0  0  0  0  0
   35.8203   -1.4952   19.1740 C   0  0  0  0  0  0  0  0  0  0  0  0
   35.3345   -2.8042   19.2232 C   0  0  0  0  0  0  0  0  0  0  0  0
   34.3370   -3.2255   18.3225 C   0  0  0  0  0  0  0  0  0  0  0  0
   33.8457   -2.3189   17.3775 C   0  0  0  0  0  0  0  0  0  0  0  0
   34.3389   -1.0133   17.3225 C   0  0  0  0  0  0  0  0  0  0  0  0
   33.8044   -4.5244   18.3322 O   0  0  0  0  0  0  0  0  0  0  0  0
   34.5370   -5.7231   18.0801 C   0  0  0  0  0  0  0  0  0  0  0  0
   34.3566   -6.1613   16.6243 C   0  0  0  0  0  0  0  0  0  0  0  0
   35.4579   -5.6674   15.7759 N   0  0  0  0  0  0  0  0  0  0  0  0
   36.6150   -5.2508   16.5811 C   0  0  0  0  0  0  0  0  0  0  0  0
   37.1882   -3.9798   15.9640 C   0  0  0  0  0  0  0  0  0  0  0  0
   36.3557   -3.7165   14.7242 C   0  0  1  0  0  0  0  0  0  0  0  0
   37.0008   -4.2270   13.5877 O   0  0  0  0  0  0  0  0  0  0  0  0
   35.0803   -4.4955   14.9779 C   0  0  0  0  0  0  0  0  0  0  0  0
   37.6494   -3.5373   13.2994 H   0  0  0  0  0  0  0  0  0  0  0  0
   37.7868    0.3800   18.7286 H   0  0  0  0  0  0  0  0  0  0  0  0
   38.3375    4.3984   15.6876 H   0  0  0  0  0  0  0  0  0  0  0  0
   34.6264    4.4175   13.7054 H   0  0  0  0  0  0  0  0  0  0  0  0
   33.7645    2.8099   15.3039 H   0  0  0  0  0  0  0  0  0  0  0  0
   35.6751    1.3028   19.1286 H   0  0  0  0  0  0  0  0  0  0  0  0
   40.6253   -1.6270   15.8667 H   0  0  0  0  0  0  0  0  0  0  0  0
   39.6544   -0.4299   17.7328 H   0  0  0  0  0  0  0  0  0  0  0  0
   36.3538    0.6259   15.3360 H   0  0  0  0  0  0  0  0  0  0  0  0
   37.3334   -0.5780   13.4783 H   0  0  0  0  0  0  0  0  0  0  0  0
   36.5535   -1.1979   19.8366 H   0  0  0  0  0  0  0  0  0  0  0  0
   35.7080   -3.4651   19.9223 H   0  0  0  0  0  0  0  0  0  0  0  0
   33.1126   -2.6172   16.7153 H   0  0  0  0  0  0  0  0  0  0  0  0
   33.9787   -0.3619   16.6077 H   0  0  0  0  0  0  0  0  0  0  0  0
   34.1813   -6.4968   18.7280 H   0  0  0  0  0  0  0  0  0  0  0  0
   35.5755   -5.5405   18.2619 H   0  0  0  0  0  0  0  0  0  0  0  0
   33.4307   -5.7721   16.2553 H   0  0  0  0  0  0  0  0  0  0  0  0
   34.3577   -7.2308   16.5907 H   0  0  0  0  0  0  0  0  0  0  0  0
   37.3564   -6.0223   16.5770 H   0  0  0  0  0  0  0  0  0  0  0  0
   36.3170   -5.0701   17.5928 H   0  0  0  0  0  0  0  0  0  0  0  0
   38.2154   -4.1229   15.7006 H   0  0  0  0  0  0  0  0  0  0  0  0
   37.1519   -3.1570   16.6471 H   0  0  0  0  0  0  0  0  0  0  0  0
   36.1897   -2.6738   14.5507 H   0  0  0  0  0  0  0  0  0  0  0  0
   34.6456   -4.8047   14.0503 H   0  0  0  0  0  0  0  0  0  0  0  0
   34.3569   -3.8961   15.4901 H   0  0  0  0  0  0  0  0  0  0  0  0
  1  2  1  0  0  0  0
  1 37  1  1  0  0  0
  2  3  1  0  0  0  0
  3  4  2  0  0  0  0
  4  5  1  0  0  0  0
  4 38  1  0  0  0  0
  5  6  1  0  0  0  0
  5  7  2  0  0  0  0
  6 12  1  0  0  0  0
  7  8  1  0  0  0  0
  7 39  1  0  0  0  0
  8  9  2  0  0  0  0
  8 40  1  0  0  0  0
  9 10  1  0  0  0  0
  9  3  1  0  0  0  0
 10 11  1  0  0  0  0
 11 21  1  0  0  0  0
 11  1  1  0  0  0  0
 11 41  1  1  0  0  0
 13 14  1  0  0  0  0
 13 20  1  0  0  0  0
 14 15  2  0  0  0  0
 15 16  1  0  0  0  0
 15 42  1  0  0  0  0
 16 17  2  0  0  0  0
 16 43  1  0  0  0  0
 17  1  1  0  0  0  0
 17 18  1  0  0  0  0
 18 19  2  0  0  0  0
 18 44  1  0  0  0  0
 19 14  1  0  0  0  0
 19 45  1  0  0  0  0
 21 22  2  0  0  0  0
 22 23  1  0  0  0  0
 22 46  1  0  0  0  0
 23 24  2  0  0  0  0
 23 47  1  0  0  0  0
 24 27  1  0  0  0  0
 24 25  1  0  0  0  0
 25 26  2  0  0  0  0
 25 48  1  0  0  0  0
 26 21  1  0  0  0  0
 26 49  1  0  0  0  0
 27 28  1  0  0  0  0
 28 29  1  0  0  0  0
 28 50  1  0  0  0  0
 28 51  1  0  0  0  0
 29 30  1  0  0  0  0
 29 52  1  0  0  0  0
 29 53  1  0  0  0  0
 30 31  1  0  0  0  0
 31 32  1  0  0  0  0
 31 54  1  0  0  0  0
 31 55  1  0  0  0  0
 32 33  1  0  0  0  0
 32 56  1  0  0  0  0
 32 57  1  0  0  0  0
 33 34  1  0  0  0  0
 33 35  1  0  0  0  0
 33 58  1  6  0  0  0
 34 36  1  0  0  0  0
 35 30  1  0  0  0  0
 35 59  1  0  0  0  0
 35 60  1  0  0  0  0
M  END
>  <minimizedAffinity>
-8.45190

$$$$
CHEMBL185114
 OpenBabel01042214213D

 60 64  0  0  0  0  0  0  0  0999 V2000
   33.6492   -4.7708   21.1156 C   0  0  1  0  0  0  0  0  0  0  0  0
   34.9000   -5.6886   20.1611 S   0  0  0  0  0  0  0  0  0  0  0  0
   35.8104   -4.2342   19.6569 C   0  0  0  0  0  0  0  0  0  0  0  0
   36.3367   -4.1767   18.3617 C   0  0  0  0  0  0  0  0  0  0  0  0
   37.1145   -3.0863   17.9631 C   0  0  0  0  0  0  0  0  0  0  0  0
   37.6365   -3.0478   16.6741 O   0  0  0  0  0  0  0  0  0  0  0  0
   37.3687   -2.0487   18.8685 C   0  0  0  0  0  0  0  0  0  0  0  0
   36.8228   -2.0916   20.1540 C   0  0  0  0  0  0  0  0  0  0  0  0
   36.0201   -3.1681   20.5470 C   0  0  0  0  0  0  0  0  0  0  0  0
   35.3780   -3.1034   21.7903 O   0  0  0  0  0  0  0  0  0  0  0  0
   34.3474   -3.9848   22.2601 C   0  0  1  0  0  0  0  0  0  0  0  0
   38.1892   -2.2628   16.3487 H   0  0  0  0  0  0  0  0  0  0  0  0
   29.9642   -1.9466   17.7512 O   0  0  0  0  0  0  0  0  0  0  0  0
   30.8647   -2.6332   18.5615 C   0  0  0  0  0  0  0  0  0  0  0  0
   30.4200   -3.3340   19.6827 C   0  0  0  0  0  0  0  0  0  0  0  0
   31.3329   -4.0129   20.4916 C   0  0  0  0  0  0  0  0  0  0  0  0
   32.7093   -3.9962   20.1985 C   0  0  0  0  0  0  0  0  0  0  0  0
   33.1429   -3.2995   19.0557 C   0  0  0  0  0  0  0  0  0  0  0  0
   32.2254   -2.6212   18.2508 C   0  0  0  0  0  0  0  0  0  0  0  0
   28.9704   -1.9412   17.9449 H   0  0  0  0  0  0  0  0  0  0  0  0
   33.3502   -3.2379   23.1344 C   0  0  0  0  0  0  0  0  0  0  0  0
   32.7594   -2.0293   22.7131 C   0  0  0  0  0  0  0  0  0  0  0  0
   31.8373   -1.3641   23.5249 C   0  0  0  0  0  0  0  0  0  0  0  0
   31.4875   -1.8930   24.7826 C   0  0  0  0  0  0  0  0  0  0  0  0
   32.0792   -3.0867   25.2079 C   0  0  0  0  0  0  0  0  0  0  0  0
   33.0085   -3.7461   24.4001 C   0  0  0  0  0  0  0  0  0  0  0  0
   30.5600   -1.2739   25.6354 O   0  0  0  0  0  0  0  0  0  0  0  0
   30.6437   -1.2295   27.0596 C   0  0  0  0  0  0  0  0  0  0  0  0
   30.7147    0.2210   27.5440 C   0  0  0  0  0  0  0  0  0  0  0  0
   32.1103    0.6425   27.7702 N   0  0  0  0  0  0  0  0  0  0  0  0
   32.6341    1.4099   26.6312 C   0  0  0  0  0  0  0  0  0  0  0  0
   34.0787    0.9821   26.3964 C   0  0  0  0  0  0  0  0  0  0  0  0
   34.3922   -0.0165   27.4937 C   0  0  1  0  0  0  0  0  0  0  0  0
   35.0465    0.6208   28.5588 O   0  0  0  0  0  0  0  0  0  0  0  0
   33.0257   -0.4905   27.9470 C   0  0  0  0  0  0  0  0  0  0  0  0
   36.0056    0.6577   28.3175 H   0  0  0  0  0  0  0  0  0  0  0  0
   32.9758   -5.4319   21.6200 H   0  0  0  0  0  0  0  0  0  0  0  0
   36.1494   -4.9437   17.6972 H   0  0  0  0  0  0  0  0  0  0  0  0
   37.9599   -1.2514   18.5860 H   0  0  0  0  0  0  0  0  0  0  0  0
   37.0128   -1.3245   20.8177 H   0  0  0  0  0  0  0  0  0  0  0  0
   34.8255   -4.7262   22.8657 H   0  0  0  0  0  0  0  0  0  0  0  0
   29.4145   -3.3506   19.9145 H   0  0  0  0  0  0  0  0  0  0  0  0
   30.9940   -4.5339   21.3154 H   0  0  0  0  0  0  0  0  0  0  0  0
   34.1454   -3.2897   18.8108 H   0  0  0  0  0  0  0  0  0  0  0  0
   32.5560   -2.1068   17.4195 H   0  0  0  0  0  0  0  0  0  0  0  0
   33.0109   -1.6314   21.7947 H   0  0  0  0  0  0  0  0  0  0  0  0
   31.4107   -0.4817   23.2018 H   0  0  0  0  0  0  0  0  0  0  0  0
   31.8270   -3.4838   26.1265 H   0  0  0  0  0  0  0  0  0  0  0  0
   33.4495   -4.6165   24.7362 H   0  0  0  0  0  0  0  0  0  0  0  0
   31.5221   -1.7510   27.3778 H   0  0  0  0  0  0  0  0  0  0  0  0
   29.7720   -1.6918   27.4735 H   0  0  0  0  0  0  0  0  0  0  0  0
   30.1709    0.3092   28.4612 H   0  0  0  0  0  0  0  0  0  0  0  0
   30.2897    0.8502   26.7901 H   0  0  0  0  0  0  0  0  0  0  0  0
   32.5969    2.4564   26.8510 H   0  0  0  0  0  0  0  0  0  0  0  0
   32.0457    1.2243   25.7570 H   0  0  0  0  0  0  0  0  0  0  0  0
   34.7333    1.8260   26.4613 H   0  0  0  0  0  0  0  0  0  0  0  0
   34.2123    0.5564   25.4239 H   0  0  0  0  0  0  0  0  0  0  0  0
   35.0288   -0.8099   27.1619 H   0  0  0  0  0  0  0  0  0  0  0  0
   33.0584   -0.7819   28.9760 H   0  0  0  0  0  0  0  0  0  0  0  0
   32.7037   -1.3393   27.3807 H   0  0  0  0  0  0  0  0  0  0  0  0
  1  2  1  0  0  0  0
  1 37  1  1  0  0  0
  2  3  1  0  0  0  0
  3  4  2  0  0  0  0
  4  5  1  0  0  0  0
  4 38  1  0  0  0  0
  5  6  1  0  0  0  0
  5  7  2  0  0  0  0
  6 12  1  0  0  0  0
  7  8  1  0  0  0  0
  7 39  1  0  0  0  0
  8  9  2  0  0  0  0
  8 40  1  0  0  0  0
  9 10  1  0  0  0  0
  9  3  1  0  0  0  0
 10 11  1  0  0  0  0
 11 21  1  0  0  0  0
 11  1  1  0  0  0  0
 11 41  1  1  0  0  0
 13 14  1  0  0  0  0
 13 20  1  0  0  0  0
 14 15  2  0  0  0  0
 15 16  1  0  0  0  0
 15 42  1  0  0  0  0
 16 17  2  0  0  0  0
 16 43  1  0  0  0  0
 17  1  1  0  0  0  0
 17 18  1  0  0  0  0
 18 19  2  0  0  0  0
 18 44  1  0  0  0  0
 19 14  1  0  0  0  0
 19 45  1  0  0  0  0
 21 22  2  0  0  0  0
 22 23  1  0  0  0  0
 22 46  1  0  0  0  0
 23 24  2  0  0  0  0
 23 47  1  0  0  0  0
 24 27  1  0  0  0  0
 24 25  1  0  0  0  0
 25 26  2  0  0  0  0
 25 48  1  0  0  0  0
 26 21  1  0  0  0  0
 26 49  1  0  0  0  0
 27 28  1  0  0  0  0
 28 29  1  0  0  0  0
 28 50  1  0  0  0  0
 28 51  1  0  0  0  0
 29 30  1  0  0  0  0
 29 52  1  0  0  0  0
 29 53  1  0  0  0  0
 30 31  1  0  0  0  0
 31 32  1  0  0  0  0
 31 54  1  0  0  0  0
 31 55  1  0  0  0  0
 32 33  1  0  0  0  0
 32 56  1  0  0  0  0
 32 57  1  0  0  0  0
 33 34  1  0  0  0  0
 33 35  1  0  0  0  0
 33 58  1  6  0  0  0
 34 36  1  0  0  0  0
 35 30  1  0  0  0  0
 35 59  1  0  0  0  0
 35 60  1  0  0  0  0
M  END
>  <minimizedAffinity>
-8.47896

$$$$
CHEMBL362718
 OpenBabel01042214213D

 60 64  0  0  0  0  0  0  0  0999 V2000
   36.6369   -3.0602   17.6442 C   0  0  1  0  0  0  0  0  0  0  0  0
   35.7914   -4.1253   18.8708 S   0  0  0  0  0  0  0  0  0  0  0  0
   34.0865   -3.5922   18.6066 C   0  0  0  0  0  0  0  0  0  0  0  0
   33.1563   -3.8659   19.6188 C   0  0  0  0  0  0  0  0  0  0  0  0
   31.8240   -3.4628   19.4904 C   0  0  0  0  0  0  0  0  0  0  0  0
   30.9165   -3.7525   20.5069 O   0  0  0  0  0  0  0  0  0  0  0  0
   31.4154   -2.7708   18.3449 C   0  0  0  0  0  0  0  0  0  0  0  0
   32.3379   -2.4788   17.3382 C   0  0  0  0  0  0  0  0  0  0  0  0
   33.6726   -2.8824   17.4585 C   0  0  0  0  0  0  0  0  0  0  0  0
   34.5665   -2.5130   16.4507 O   0  0  0  0  0  0  0  0  0  0  0  0
   35.8723   -3.0607   16.3075 C   0  0  1  0  0  0  0  0  0  0  0  0
   29.9446   -3.4726   20.4449 H   0  0  0  0  0  0  0  0  0  0  0  0
   38.0059    2.2166   19.4270 O   0  0  0  0  0  0  0  0  0  0  0  0
   37.6752    0.9298   19.0087 C   0  0  0  0  0  0  0  0  0  0  0  0
   36.3636    0.4723   19.1539 C   0  0  0  0  0  0  0  0  0  0  0  0
   36.0141   -0.8151   18.7357 C   0  0  0  0  0  0  0  0  0  0  0  0
   36.9793   -1.6718   18.1702 C   0  0  0  0  0  0  0  0  0  0  0  0
   38.2974   -1.1963   18.0261 C   0  0  0  0  0  0  0  0  0  0  0  0
   38.6423    0.0918   18.4430 C   0  0  0  0  0  0  0  0  0  0  0  0
   38.9481    2.5780   19.3334 H   0  0  0  0  0  0  0  0  0  0  0  0
   36.6359   -2.3214   15.2298 C   0  0  0  0  0  0  0  0  0  0  0  0
   36.2410   -1.0378   14.8122 C   0  0  0  0  0  0  0  0  0  0  0  0
   36.9936   -0.3400   13.8643 C   0  0  0  0  0  0  0  0  0  0  0  0
   38.1540   -0.9026   13.3229 C   0  0  0  0  0  0  0  0  0  0  0  0
   38.5577   -2.1832   13.7445 C   0  0  0  0  0  0  0  0  0  0  0  0
   37.8066   -2.8817   14.6941 C   0  0  0  0  0  0  0  0  0  0  0  0
   38.8751   -0.1589   12.3782 O   0  0  0  0  0  0  0  0  0  0  0  0
   38.5364    1.1611   11.9599 C   0  0  0  0  0  0  0  0  0  0  0  0
   39.5146    2.1756   12.5636 C   0  0  0  0  0  0  0  0  0  0  0  0
   38.8108    3.2748   13.2654 N   0  0  0  0  0  0  0  0  0  0  0  0
   37.3360    3.1551   13.1313 C   0  0  0  0  0  0  0  0  0  0  0  0
   36.5780    3.9662   14.1849 C   0  0  0  0  0  0  0  0  0  0  0  0
   36.7590    3.2367   15.8542 S   0  0  0  0  0  0  0  0  0  0  0  0
   38.4510    2.5670   15.6519 C   0  0  0  0  0  0  0  0  0  0  0  0
   39.2775    3.4035   14.6700 C   0  0  0  0  0  0  0  0  0  0  0  0
   37.5971   -3.4913   17.4518 H   0  0  0  0  0  0  0  0  0  0  0  0
   33.4580   -4.3700   20.4672 H   0  0  0  0  0  0  0  0  0  0  0  0
   30.4315   -2.4760   18.2440 H   0  0  0  0  0  0  0  0  0  0  0  0
   32.0332   -1.9613   16.4989 H   0  0  0  0  0  0  0  0  0  0  0  0
   35.7746   -4.0830   16.0072 H   0  0  0  0  0  0  0  0  0  0  0  0
   35.6486    1.0879   19.5721 H   0  0  0  0  0  0  0  0  0  0  0  0
   35.0407   -1.1408   18.8421 H   0  0  0  0  0  0  0  0  0  0  0  0
   39.0168   -1.8066   17.6077 H   0  0  0  0  0  0  0  0  0  0  0  0
   39.6126    0.4259   18.3334 H   0  0  0  0  0  0  0  0  0  0  0  0
   35.3901   -0.6088   15.2084 H   0  0  0  0  0  0  0  0  0  0  0  0
   36.6907    0.5987   13.5609 H   0  0  0  0  0  0  0  0  0  0  0  0
   39.4118   -2.6083   13.3509 H   0  0  0  0  0  0  0  0  0  0  0  0
   38.1149   -3.8166   15.0039 H   0  0  0  0  0  0  0  0  0  0  0  0
   37.5433    1.3910   12.2852 H   0  0  0  0  0  0  0  0  0  0  0  0
   38.5929    1.2143   10.8927 H   0  0  0  0  0  0  0  0  0  0  0  0
   40.1091    2.5923   11.7776 H   0  0  0  0  0  0  0  0  0  0  0  0
   40.1233    1.6629   13.2788 H   0  0  0  0  0  0  0  0  0  0  0  0
   37.0658    2.1248   13.2331 H   0  0  0  0  0  0  0  0  0  0  0  0
   37.0669    3.5424   12.1709 H   0  0  0  0  0  0  0  0  0  0  0  0
   35.5400    3.9880   13.9260 H   0  0  0  0  0  0  0  0  0  0  0  0
   36.9872    4.9546   14.2051 H   0  0  0  0  0  0  0  0  0  0  0  0
   38.3855    1.5645   15.2838 H   0  0  0  0  0  0  0  0  0  0  0  0
   38.9369    2.5944   16.6048 H   0  0  0  0  0  0  0  0  0  0  0  0
   40.2969    3.0824   14.7218 H   0  0  0  0  0  0  0  0  0  0  0  0
   39.1685    4.4300   14.9518 H   0  0  0  0  0  0  0  0  0  0  0  0
  1  2  1  0  0  0  0
  1 36  1  6  0  0  0
  2  3  1  0  0  0  0
  3  4  2  0  0  0  0
  4  5  1  0  0  0  0
  4 37  1  0  0  0  0
  5  6  1  0  0  0  0
  5  7  2  0  0  0  0
  6 12  1  0  0  0  0
  7  8  1  0  0  0  0
  7 38  1  0  0  0  0
  8  9  2  0  0  0  0
  8 39  1  0  0  0  0
  9 10  1  0  0  0  0
  9  3  1  0  0  0  0
 10 11  1  0  0  0  0
 11 21  1  0  0  0  0
 11  1  1  0  0  0  0
 11 40  1  6  0  0  0
 13 14  1  0  0  0  0
 13 20  1  0  0  0  0
 14 15  2  0  0  0  0
 15 16  1  0  0  0  0
 15 41  1  0  0  0  0
 16 17  2  0  0  0  0
 16 42  1  0  0  0  0
 17  1  1  0  0  0  0
 17 18  1  0  0  0  0
 18 19  2  0  0  0  0
 18 43  1  0  0  0  0
 19 14  1  0  0  0  0
 19 44  1  0  0  0  0
 21 22  2  0  0  0  0
 22 23  1  0  0  0  0
 22 45  1  0  0  0  0
 23 24  2  0  0  0  0
 23 46  1  0  0  0  0
 24 27  1  0  0  0  0
 24 25  1  0  0  0  0
 25 26  2  0  0  0  0
 25 47  1  0  0  0  0
 26 21  1  0  0  0  0
 26 48  1  0  0  0  0
 27 28  1  0  0  0  0
 28 29  1  0  0  0  0
 28 49  1  0  0  0  0
 28 50  1  0  0  0  0
 29 30  1  0  0  0  0
 29 51  1  0  0  0  0
 29 52  1  0  0  0  0
 30 31  1  0  0  0  0
 31 32  1  0  0  0  0
 31 53  1  0  0  0  0
 31 54  1  0  0  0  0
 32 33  1  0  0  0  0
 32 55  1  0  0  0  0
 32 56  1  0  0  0  0
 33 34  1  0  0  0  0
 34 35  1  0  0  0  0
 34 57  1  0  0  0  0
 34 58  1  0  0  0  0
 35 30  1  0  0  0  0
 35 59  1  0  0  0  0
 35 60  1  0  0  0  0
M  END
>  <minimizedAffinity>
-8.48076

$$$$
CHEMBL135
 OpenBabel01042214213D

 44 47  0  0  0  0  0  0  0  0999 V2000
   36.3766    0.2179   18.8882 C   0  0  0  0  0  0  0  0  0  0  0  0
   36.6371   -1.0338   17.9898 C   0  0  2  0  0  0  0  0  0  0  0  0
   35.7428   -0.9732   16.7328 C   0  0  0  0  0  0  0  0  0  0  0  0
   34.2451   -1.1574   17.0910 C   0  0  0  0  0  0  0  0  0  0  0  0
   33.9688   -2.4223   17.9632 C   0  0  2  0  0  0  0  0  0  0  0  0
   32.5122   -2.5748   18.4055 C   0  0  0  0  0  0  0  0  0  0  0  0
   31.4505   -2.1471   17.5785 C   0  0  0  0  0  0  0  0  0  0  0  0
   30.1219   -2.3639   17.9469 C   0  0  0  0  0  0  0  0  0  0  0  0
   29.8203   -3.0349   19.1333 C   0  0  0  0  0  0  0  0  0  0  0  0
   28.4967   -3.2500   19.5113 O   0  0  0  0  0  0  0  0  0  0  0  0
   30.8534   -3.4991   19.9470 C   0  0  0  0  0  0  0  0  0  0  0  0
   32.1965   -3.3002   19.5880 C   0  0  0  0  0  0  0  0  0  0  0  0
   33.2608   -3.7999   20.5415 C   0  0  0  0  0  0  0  0  0  0  0  0
   34.6693   -3.8040   19.9415 C   0  0  0  0  0  0  0  0  0  0  0  0
   34.9213   -2.4885   19.1947 C   0  0  1  0  0  0  0  0  0  0  0  0
   36.3724   -2.3737   18.6914 C   0  0  2  0  0  0  0  0  0  0  0  0
   37.5251   -2.5297   19.6769 C   0  0  0  0  0  0  0  0  0  0  0  0
   38.7231   -1.8800   18.9591 C   0  0  0  0  0  0  0  0  0  0  0  0
   38.1477   -1.1738   17.7041 C   0  0  2  0  0  0  0  0  0  0  0  0
   38.7838    0.0456   17.3962 O   0  0  0  0  0  0  0  0  0  0  0  0
   27.7237   -2.9265   18.9416 H   0  0  0  0  0  0  0  0  0  0  0  0
   38.9436    0.5456   18.2374 H   0  0  0  0  0  0  0  0  0  0  0  0
   35.3278    0.3067   19.0807 H   0  0  0  0  0  0  0  0  0  0  0  0
   36.7224    1.0965   18.3848 H   0  0  0  0  0  0  0  0  0  0  0  0
   36.9012    0.1077   19.8143 H   0  0  0  0  0  0  0  0  0  0  0  0
   36.0372   -1.7504   16.0589 H   0  0  0  0  0  0  0  0  0  0  0  0
   35.8639   -0.0109   16.2809 H   0  0  0  0  0  0  0  0  0  0  0  0
   33.6868   -1.2432   16.1822 H   0  0  0  0  0  0  0  0  0  0  0  0
   33.9503   -0.3052   17.6670 H   0  0  0  0  0  0  0  0  0  0  0  0
   34.1720   -3.2509   17.3174 H   0  0  0  0  0  0  0  0  0  0  0  0
   31.6600   -1.6674   16.6891 H   0  0  0  0  0  0  0  0  0  0  0  0
   29.3589   -2.0266   17.3394 H   0  0  0  0  0  0  0  0  0  0  0  0
   30.6282   -3.9948   20.8237 H   0  0  0  0  0  0  0  0  0  0  0  0
   33.0134   -4.8000   20.8303 H   0  0  0  0  0  0  0  0  0  0  0  0
   33.2766   -3.1276   21.3738 H   0  0  0  0  0  0  0  0  0  0  0  0
   34.7620   -4.6229   19.2591 H   0  0  0  0  0  0  0  0  0  0  0  0
   35.3874   -3.9061   20.7281 H   0  0  0  0  0  0  0  0  0  0  0  0
   34.7407   -1.6852   19.8780 H   0  0  0  0  0  0  0  0  0  0  0  0
   36.3893   -3.2329   18.0539 H   0  0  0  0  0  0  0  0  0  0  0  0
   37.7169   -3.5632   19.8767 H   0  0  0  0  0  0  0  0  0  0  0  0
   37.3194   -2.0774   20.6246 H   0  0  0  0  0  0  0  0  0  0  0  0
   39.4323   -2.6276   18.6710 H   0  0  0  0  0  0  0  0  0  0  0  0
   39.2297   -1.1867   19.5975 H   0  0  0  0  0  0  0  0  0  0  0  0
   38.3261   -1.7457   16.8175 H   0  0  0  0  0  0  0  0  0  0  0  0
  1 23  1  0  0  0  0
  1 24  1  0  0  0  0
  1 25  1  0  0  0  0
  2  1  1  1  0  0  0
  2  3  1  0  0  0  0
  3  4  1  0  0  0  0
  3 26  1  0  0  0  0
  3 27  1  0  0  0  0
  4  5  1  0  0  0  0
  4 28  1  0  0  0  0
  4 29  1  0  0  0  0
  5  6  1  0  0  0  0
  5 30  1  6  0  0  0
  6  7  2  0  0  0  0
  7  8  1  0  0  0  0
  7 31  1  0  0  0  0
  8  9  2  0  0  0  0
  8 32  1  0  0  0  0
  9 10  1  0  0  0  0
  9 11  1  0  0  0  0
 10 21  1  0  0  0  0
 11 12  2  0  0  0  0
 11 33  1  0  0  0  0
 12 13  1  0  0  0  0
 12  6  1  0  0  0  0
 13 14  1  0  0  0  0
 13 34  1  0  0  0  0
 13 35  1  0  0  0  0
 14 15  1  0  0  0  0
 14 36  1  0  0  0  0
 14 37  1  0  0  0  0
 15 16  1  0  0  0  0
 15  5  1  0  0  0  0
 15 38  1  1  0  0  0
 16 17  1  0  0  0  0
 16  2  1  0  0  0  0
 16 39  1  6  0  0  0
 17 18  1  0  0  0  0
 17 40  1  0  0  0  0
 17 41  1  0  0  0  0
 18 19  1  0  0  0  0
 18 42  1  0  0  0  0
 18 43  1  0  0  0  0
 19 20  1  0  0  0  0
 19  2  1  0  0  0  0
 19 44  1  6  0  0  0
 20 22  1  0  0  0  0
M  END
>  <minimizedAffinity>
-8.48501

$$$$
CHEMBL184679
 OpenBabel01042214213D

 59 63  0  0  0  0  0  0  0  0999 V2000
   38.3591   -1.8035   16.9828 C   0  0  1  0  0  0  0  0  0  0  0  0
   39.4932   -0.8878   15.8882 S   0  0  0  0  0  0  0  0  0  0  0  0
   38.2890    0.3526   15.4104 C   0  0  0  0  0  0  0  0  0  0  0  0
   38.2837    0.8220   14.0920 C   0  0  0  0  0  0  0  0  0  0  0  0
   37.4060    1.8455   13.7113 C   0  0  0  0  0  0  0  0  0  0  0  0
   37.4088    2.3333   12.4053 O   0  0  0  0  0  0  0  0  0  0  0  0
   36.5328    2.3976   14.6526 C   0  0  0  0  0  0  0  0  0  0  0  0
   36.5169    1.9127   15.9627 C   0  0  0  0  0  0  0  0  0  0  0  0
   37.3730    0.8728   16.3436 C   0  0  0  0  0  0  0  0  0  0  0  0
   37.2286    0.3266   17.6265 O   0  0  0  0  0  0  0  0  0  0  0  0
   37.8800   -0.8541   18.1165 C   0  0  1  0  0  0  0  0  0  0  0  0
   38.0303    1.9535   11.6981 H   0  0  0  0  0  0  0  0  0  0  0  0
   34.5267   -4.5381   13.7014 O   0  0  0  0  0  0  0  0  0  0  0  0
   35.4519   -3.8875   14.5159 C   0  0  0  0  0  0  0  0  0  0  0  0
   36.8261   -4.0364   14.2976 C   0  0  0  0  0  0  0  0  0  0  0  0
   37.7429   -3.3718   15.1172 C   0  0  0  0  0  0  0  0  0  0  0  0
   37.3041   -2.5477   16.1717 C   0  0  0  0  0  0  0  0  0  0  0  0
   35.9157   -2.4005   16.3769 C   0  0  0  0  0  0  0  0  0  0  0  0
   35.0016   -3.0734   15.5591 C   0  0  0  0  0  0  0  0  0  0  0  0
   34.8169   -5.1049   12.9125 H   0  0  0  0  0  0  0  0  0  0  0  0
   37.0169   -1.5672   19.1453 C   0  0  0  0  0  0  0  0  0  0  0  0
   35.7199   -1.1197   19.4591 C   0  0  0  0  0  0  0  0  0  0  0  0
   34.9564   -1.7702   20.4325 C   0  0  0  0  0  0  0  0  0  0  0  0
   35.4717   -2.8894   21.1101 C   0  0  0  0  0  0  0  0  0  0  0  0
   36.7552   -3.3450   20.7905 C   0  0  0  0  0  0  0  0  0  0  0  0
   37.5271   -2.6848   19.8302 C   0  0  0  0  0  0  0  0  0  0  0  0
   34.7494   -3.5762   22.1004 O   0  0  0  0  0  0  0  0  0  0  0  0
   33.3789   -3.9665   21.9989 C   0  0  0  0  0  0  0  0  0  0  0  0
   33.0638   -4.4408   20.5753 C   0  0  0  0  0  0  0  0  0  0  0  0
   32.2372   -3.4465   19.8621 N   0  0  0  0  0  0  0  0  0  0  0  0
   30.8227   -3.4582   20.2876 C   0  0  0  0  0  0  0  0  0  0  0  0
   29.9553   -3.3033   19.0354 C   0  0  0  0  0  0  0  0  0  0  0  0
   30.9324   -3.1156   17.8896 C   0  0  1  0  0  0  0  0  0  0  0  0
   31.0963   -1.7635   17.6265 F   0  0  0  0  0  0  0  0  0  0  0  0
   32.2285   -3.6995   18.4157 C   0  0  0  0  0  0  0  0  0  0  0  0
   38.8439   -2.6051   17.4998 H   0  0  0  0  0  0  0  0  0  0  0  0
   38.9285    0.4128   13.3979 H   0  0  0  0  0  0  0  0  0  0  0  0
   35.8988    3.1647   14.3794 H   0  0  0  0  0  0  0  0  0  0  0  0
   35.8700    2.3237   16.6539 H   0  0  0  0  0  0  0  0  0  0  0  0
   38.7732   -0.5325   18.6101 H   0  0  0  0  0  0  0  0  0  0  0  0
   37.1634   -4.6381   13.5300 H   0  0  0  0  0  0  0  0  0  0  0  0
   38.7544   -3.4865   14.9474 H   0  0  0  0  0  0  0  0  0  0  0  0
   35.5720   -1.7918   17.1361 H   0  0  0  0  0  0  0  0  0  0  0  0
   33.9888   -2.9681   15.7270 H   0  0  0  0  0  0  0  0  0  0  0  0
   35.3284   -0.3025   18.9652 H   0  0  0  0  0  0  0  0  0  0  0  0
   34.0089   -1.4271   20.6552 H   0  0  0  0  0  0  0  0  0  0  0  0
   37.1359   -4.1767   21.2684 H   0  0  0  0  0  0  0  0  0  0  0  0
   38.4804   -3.0206   19.6217 H   0  0  0  0  0  0  0  0  0  0  0  0
   32.7553   -3.1306   22.2384 H   0  0  0  0  0  0  0  0  0  0  0  0
   33.1946   -4.7694   22.6817 H   0  0  0  0  0  0  0  0  0  0  0  0
   32.5326   -5.3683   20.6241 H   0  0  0  0  0  0  0  0  0  0  0  0
   33.9841   -4.5661   20.0440 H   0  0  0  0  0  0  0  0  0  0  0  0
   30.6384   -2.6470   20.9605 H   0  0  0  0  0  0  0  0  0  0  0  0
   30.5917   -4.3736   20.7911 H   0  0  0  0  0  0  0  0  0  0  0  0
   29.3160   -2.4501   19.1259 H   0  0  0  0  0  0  0  0  0  0  0  0
   29.3212   -4.1516   18.8829 H   0  0  0  0  0  0  0  0  0  0  0  0
   30.6049   -3.5788   16.9823 H   0  0  0  0  0  0  0  0  0  0  0  0
   33.0656   -3.2219   17.9510 H   0  0  0  0  0  0  0  0  0  0  0  0
   32.2981   -4.7459   18.2035 H   0  0  0  0  0  0  0  0  0  0  0  0
  1  2  1  0  0  0  0
  1 36  1  1  0  0  0
  2  3  1  0  0  0  0
  3  4  2  0  0  0  0
  4  5  1  0  0  0  0
  4 37  1  0  0  0  0
  5  6  1  0  0  0  0
  5  7  2  0  0  0  0
  6 12  1  0  0  0  0
  7  8  1  0  0  0  0
  7 38  1  0  0  0  0
  8  9  2  0  0  0  0
  8 39  1  0  0  0  0
  9 10  1  0  0  0  0
  9  3  1  0  0  0  0
 10 11  1  0  0  0  0
 11 21  1  0  0  0  0
 11  1  1  0  0  0  0
 11 40  1  1  0  0  0
 13 14  1  0  0  0  0
 13 20  1  0  0  0  0
 14 15  2  0  0  0  0
 15 16  1  0  0  0  0
 15 41  1  0  0  0  0
 16 17  2  0  0  0  0
 16 42  1  0  0  0  0
 17  1  1  0  0  0  0
 17 18  1  0  0  0  0
 18 19  2  0  0  0  0
 18 43  1  0  0  0  0
 19 14  1  0  0  0  0
 19 44  1  0  0  0  0
 21 22  2  0  0  0  0
 22 23  1  0  0  0  0
 22 45  1  0  0  0  0
 23 24  2  0  0  0  0
 23 46  1  0  0  0  0
 24 27  1  0  0  0  0
 24 25  1  0  0  0  0
 25 26  2  0  0  0  0
 25 47  1  0  0  0  0
 26 21  1  0  0  0  0
 26 48  1  0  0  0  0
 27 28  1  0  0  0  0
 28 29  1  0  0  0  0
 28 49  1  0  0  0  0
 28 50  1  0  0  0  0
 29 30  1  0  0  0  0
 29 51  1  0  0  0  0
 29 52  1  0  0  0  0
 30 31  1  0  0  0  0
 31 32  1  0  0  0  0
 31 53  1  0  0  0  0
 31 54  1  0  0  0  0
 32 33  1  0  0  0  0
 32 55  1  0  0  0  0
 32 56  1  0  0  0  0
 33 34  1  0  0  0  0
 33 35  1  0  0  0  0
 33 57  1  6  0  0  0
 35 30  1  0  0  0  0
 35 58  1  0  0  0  0
 35 59  1  0  0  0  0
M  END
>  <minimizedAffinity>
-8.48876

$$$$
CHEMBL184679
 OpenBabel01042214213D

 59 63  0  0  0  0  0  0  0  0999 V2000
   37.5780    0.7465   18.0960 C   0  0  1  0  0  0  0  0  0  0  0  0
   37.9876    2.5225   18.0642 S   0  0  0  0  0  0  0  0  0  0  0  0
   36.8261    2.9321   16.7604 C   0  0  0  0  0  0  0  0  0  0  0  0
   37.1906    3.8821   15.7995 C   0  0  0  0  0  0  0  0  0  0  0  0
   36.2747    4.2776   14.8159 C   0  0  0  0  0  0  0  0  0  0  0  0
   36.6226    5.2386   13.8678 O   0  0  0  0  0  0  0  0  0  0  0  0
   34.9935    3.7196   14.7953 C   0  0  0  0  0  0  0  0  0  0  0  0
   34.6356    2.7513   15.7366 C   0  0  0  0  0  0  0  0  0  0  0  0
   35.5540    2.3327   16.7064 C   0  0  0  0  0  0  0  0  0  0  0  0
   35.2001    1.2647   17.5426 O   0  0  0  0  0  0  0  0  0  0  0  0
   36.0743    0.5846   18.4546 C   0  0  1  0  0  0  0  0  0  0  0  0
   37.5450    5.6626   13.8555 H   0  0  0  0  0  0  0  0  0  0  0  0
   39.7118   -1.6745   13.3506 O   0  0  0  0  0  0  0  0  0  0  0  0
   39.1883   -1.1072   14.5111 C   0  0  0  0  0  0  0  0  0  0  0  0
   40.0276   -0.4980   15.4507 C   0  0  0  0  0  0  0  0  0  0  0  0
   39.4883    0.0739   16.6066 C   0  0  0  0  0  0  0  0  0  0  0  0
   38.1008    0.0461   16.8466 C   0  0  0  0  0  0  0  0  0  0  0  0
   37.2648   -0.5652   15.8880 C   0  0  0  0  0  0  0  0  0  0  0  0
   37.8093   -1.1431   14.7362 C   0  0  0  0  0  0  0  0  0  0  0  0
   40.7019   -1.6326   13.1366 H   0  0  0  0  0  0  0  0  0  0  0  0
   35.6693   -0.8720   18.6160 C   0  0  0  0  0  0  0  0  0  0  0  0
   34.4941   -1.3811   18.0323 C   0  0  0  0  0  0  0  0  0  0  0  0
   34.1231   -2.7154   18.2215 C   0  0  0  0  0  0  0  0  0  0  0  0
   34.9249   -3.5737   18.9946 C   0  0  0  0  0  0  0  0  0  0  0  0
   36.1008   -3.0743   19.5645 C   0  0  0  0  0  0  0  0  0  0  0  0
   36.4639   -1.7356   19.3913 C   0  0  0  0  0  0  0  0  0  0  0  0
   34.5958   -4.9207   19.2210 O   0  0  0  0  0  0  0  0  0  0  0  0
   33.8631   -5.7525   18.3198 C   0  0  0  0  0  0  0  0  0  0  0  0
   34.8217   -6.5018   17.3869 C   0  0  0  0  0  0  0  0  0  0  0  0
   34.7057   -6.0003   16.0029 N   0  0  0  0  0  0  0  0  0  0  0  0
   35.7327   -4.9939   15.6644 C   0  0  0  0  0  0  0  0  0  0  0  0
   35.0561   -3.8906   14.8464 C   0  0  0  0  0  0  0  0  0  0  0  0
   33.6224   -4.3510   14.6579 C   0  0  1  0  0  0  0  0  0  0  0  0
   33.4878   -4.9837   13.4307 F   0  0  0  0  0  0  0  0  0  0  0  0
   33.4090   -5.3487   15.7788 C   0  0  0  0  0  0  0  0  0  0  0  0
   38.0908    0.2197   18.8734 H   0  0  0  0  0  0  0  0  0  0  0  0
   38.1373    4.2927   15.8155 H   0  0  0  0  0  0  0  0  0  0  0  0
   34.3107    4.0233   14.0836 H   0  0  0  0  0  0  0  0  0  0  0  0
   33.6884    2.3422   15.7168 H   0  0  0  0  0  0  0  0  0  0  0  0
   35.9594    1.0601   19.4062 H   0  0  0  0  0  0  0  0  0  0  0  0
   41.0466   -0.4709   15.2899 H   0  0  0  0  0  0  0  0  0  0  0  0
   40.1150    0.5223   17.2930 H   0  0  0  0  0  0  0  0  0  0  0  0
   36.2439   -0.5861   16.0378 H   0  0  0  0  0  0  0  0  0  0  0  0
   37.1891   -1.5987   14.0486 H   0  0  0  0  0  0  0  0  0  0  0  0
   33.8999   -0.7626   17.4584 H   0  0  0  0  0  0  0  0  0  0  0  0
   33.2557   -3.0727   17.7913 H   0  0  0  0  0  0  0  0  0  0  0  0
   36.7062   -3.7004   20.1182 H   0  0  0  0  0  0  0  0  0  0  0  0
   37.3233   -1.3775   19.8366 H   0  0  0  0  0  0  0  0  0  0  0  0
   33.2047   -5.1448   17.7349 H   0  0  0  0  0  0  0  0  0  0  0  0
   33.2997   -6.4654   18.8848 H   0  0  0  0  0  0  0  0  0  0  0  0
   34.5833   -7.5448   17.4032 H   0  0  0  0  0  0  0  0  0  0  0  0
   35.8241   -6.3434   17.7261 H   0  0  0  0  0  0  0  0  0  0  0  0
   36.5115   -5.4483   15.0884 H   0  0  0  0  0  0  0  0  0  0  0  0
   36.1647   -4.5871   16.5548 H   0  0  0  0  0  0  0  0  0  0  0  0
   35.5403   -3.7764   13.8991 H   0  0  0  0  0  0  0  0  0  0  0  0
   35.1081   -2.9417   15.3381 H   0  0  0  0  0  0  0  0  0  0  0  0
   32.9194   -3.5446   14.6787 H   0  0  0  0  0  0  0  0  0  0  0  0
   32.6744   -6.0731   15.4951 H   0  0  0  0  0  0  0  0  0  0  0  0
   33.0574   -4.8665   16.6669 H   0  0  0  0  0  0  0  0  0  0  0  0
  1  2  1  0  0  0  0
  1 36  1  1  0  0  0
  2  3  1  0  0  0  0
  3  4  2  0  0  0  0
  4  5  1  0  0  0  0
  4 37  1  0  0  0  0
  5  6  1  0  0  0  0
  5  7  2  0  0  0  0
  6 12  1  0  0  0  0
  7  8  1  0  0  0  0
  7 38  1  0  0  0  0
  8  9  2  0  0  0  0
  8 39  1  0  0  0  0
  9 10  1  0  0  0  0
  9  3  1  0  0  0  0
 10 11  1  0  0  0  0
 11 21  1  0  0  0  0
 11  1  1  0  0  0  0
 11 40  1  1  0  0  0
 13 14  1  0  0  0  0
 13 20  1  0  0  0  0
 14 15  2  0  0  0  0
 15 16  1  0  0  0  0
 15 41  1  0  0  0  0
 16 17  2  0  0  0  0
 16 42  1  0  0  0  0
 17  1  1  0  0  0  0
 17 18  1  0  0  0  0
 18 19  2  0  0  0  0
 18 43  1  0  0  0  0
 19 14  1  0  0  0  0
 19 44  1  0  0  0  0
 21 22  2  0  0  0  0
 22 23  1  0  0  0  0
 22 45  1  0  0  0  0
 23 24  2  0  0  0  0
 23 46  1  0  0  0  0
 24 27  1  0  0  0  0
 24 25  1  0  0  0  0
 25 26  2  0  0  0  0
 25 47  1  0  0  0  0
 26 21  1  0  0  0  0
 26 48  1  0  0  0  0
 27 28  1  0  0  0  0
 28 29  1  0  0  0  0
 28 49  1  0  0  0  0
 28 50  1  0  0  0  0
 29 30  1  0  0  0  0
 29 51  1  0  0  0  0
 29 52  1  0  0  0  0
 30 31  1  0  0  0  0
 31 32  1  0  0  0  0
 31 53  1  0  0  0  0
 31 54  1  0  0  0  0
 32 33  1  0  0  0  0
 32 55  1  0  0  0  0
 32 56  1  0  0  0  0
 33 34  1  0  0  0  0
 33 35  1  0  0  0  0
 33 57  1  1  0  0  0
 35 30  1  0  0  0  0
 35 58  1  0  0  0  0
 35 59  1  0  0  0  0
M  END
>  <minimizedAffinity>
-8.51152

$$$$
CHEMBL184679
 OpenBabel01042214213D

 59 63  0  0  0  0  0  0  0  0999 V2000
   35.7828   -1.3589   16.5800 C   0  0  1  0  0  0  0  0  0  0  0  0
   36.1951   -1.3819   14.8045 S   0  0  0  0  0  0  0  0  0  0  0  0
   37.9054   -1.8665   15.0428 C   0  0  0  0  0  0  0  0  0  0  0  0
   38.8892   -1.3173   14.2127 C   0  0  0  0  0  0  0  0  0  0  0  0
   40.2215   -1.7358   14.3255 C   0  0  0  0  0  0  0  0  0  0  0  0
   41.2039   -1.2092   13.4883 O   0  0  0  0  0  0  0  0  0  0  0  0
   40.5673   -2.7045   15.2717 C   0  0  0  0  0  0  0  0  0  0  0  0
   39.5924   -3.2349   16.1201 C   0  0  0  0  0  0  0  0  0  0  0  0
   38.2641   -2.8028   16.0303 C   0  0  0  0  0  0  0  0  0  0  0  0
   37.3484   -3.2593   16.9886 O   0  0  0  0  0  0  0  0  0  0  0  0
   36.0074   -2.7810   17.1659 C   0  0  1  0  0  0  0  0  0  0  0  0
   40.9853   -0.5041   12.7913 H   0  0  0  0  0  0  0  0  0  0  0  0
   38.3625    3.1831   18.9566 O   0  0  0  0  0  0  0  0  0  0  0  0
   37.7227    2.0781   18.3979 C   0  0  0  0  0  0  0  0  0  0  0  0
   36.8806    2.2241   17.2897 C   0  0  0  0  0  0  0  0  0  0  0  0
   36.2514    1.1061   16.7345 C   0  0  0  0  0  0  0  0  0  0  0  0
   36.4498   -0.1783   17.2772 C   0  0  0  0  0  0  0  0  0  0  0  0
   37.3066   -0.3128   18.3904 C   0  0  0  0  0  0  0  0  0  0  0  0
   37.9284    0.8096   18.9477 C   0  0  0  0  0  0  0  0  0  0  0  0
   38.2666    4.1113   18.5602 H   0  0  0  0  0  0  0  0  0  0  0  0
   35.5785   -2.8841   18.6210 C   0  0  0  0  0  0  0  0  0  0  0  0
   36.4641   -3.3236   19.6227 C   0  0  0  0  0  0  0  0  0  0  0  0
   36.0392   -3.4431   20.9490 C   0  0  0  0  0  0  0  0  0  0  0  0
   34.7181   -3.1182   21.3045 C   0  0  0  0  0  0  0  0  0  0  0  0
   33.8394   -2.6677   20.3135 C   0  0  0  0  0  0  0  0  0  0  0  0
   34.2576   -2.5649   18.9836 C   0  0  0  0  0  0  0  0  0  0  0  0
   34.2379   -3.2255   22.6205 O   0  0  0  0  0  0  0  0  0  0  0  0
   32.9225   -2.8690   23.0492 C   0  0  0  0  0  0  0  0  0  0  0  0
   32.6077   -3.5200   24.4011 C   0  0  0  0  0  0  0  0  0  0  0  0
   31.9992   -2.5421   25.3252 N   0  0  0  0  0  0  0  0  0  0  0  0
   31.9874   -1.1669   24.7863 C   0  0  0  0  0  0  0  0  0  0  0  0
   32.3532   -0.2133   25.9270 C   0  0  0  0  0  0  0  0  0  0  0  0
   32.4888   -1.0910   27.1575 C   0  0  1  0  0  0  0  0  0  0  0  0
   31.3029   -1.0806   27.8770 F   0  0  0  0  0  0  0  0  0  0  0  0
   32.7375   -2.4755   26.5927 C   0  0  0  0  0  0  0  0  0  0  0  0
   34.7464   -1.1624   16.7593 H   0  0  0  0  0  0  0  0  0  0  0  0
   38.6324   -0.6015   13.5150 H   0  0  0  0  0  0  0  0  0  0  0  0
   41.5445   -3.0285   15.3438 H   0  0  0  0  0  0  0  0  0  0  0  0
   39.8532   -3.9497   16.8173 H   0  0  0  0  0  0  0  0  0  0  0  0
   35.3713   -3.4242   16.5944 H   0  0  0  0  0  0  0  0  0  0  0  0
   36.7238    3.1589   16.8816 H   0  0  0  0  0  0  0  0  0  0  0  0
   35.6335    1.2234   15.9163 H   0  0  0  0  0  0  0  0  0  0  0  0
   37.4758   -1.2463   18.7965 H   0  0  0  0  0  0  0  0  0  0  0  0
   38.5427    0.7004   19.7697 H   0  0  0  0  0  0  0  0  0  0  0  0
   37.4377   -3.5602   19.3753 H   0  0  0  0  0  0  0  0  0  0  0  0
   36.6989   -3.7717   21.6714 H   0  0  0  0  0  0  0  0  0  0  0  0
   32.8730   -2.4087   20.5667 H   0  0  0  0  0  0  0  0  0  0  0  0
   33.5907   -2.2518   18.2609 H   0  0  0  0  0  0  0  0  0  0  0  0
   32.2118   -3.2035   22.3226 H   0  0  0  0  0  0  0  0  0  0  0  0
   32.8673   -1.8056   23.1542 H   0  0  0  0  0  0  0  0  0  0  0  0
   33.5143   -3.8918   24.8310 H   0  0  0  0  0  0  0  0  0  0  0  0
   31.9148   -4.3199   24.2434 H   0  0  0  0  0  0  0  0  0  0  0  0
   31.0128   -0.9307   24.4130 H   0  0  0  0  0  0  0  0  0  0  0  0
   32.6882   -1.0745   23.9830 H   0  0  0  0  0  0  0  0  0  0  0  0
   31.5814    0.5140   26.0691 H   0  0  0  0  0  0  0  0  0  0  0  0
   33.2541    0.3261   25.7215 H   0  0  0  0  0  0  0  0  0  0  0  0
   33.2646   -0.7653   27.8185 H   0  0  0  0  0  0  0  0  0  0  0  0
   32.3787   -3.2220   27.2702 H   0  0  0  0  0  0  0  0  0  0  0  0
   33.7821   -2.6531   26.4441 H   0  0  0  0  0  0  0  0  0  0  0  0
  1  2  1  0  0  0  0
  1 36  1  1  0  0  0
  2  3  1  0  0  0  0
  3  4  2  0  0  0  0
  4  5  1  0  0  0  0
  4 37  1  0  0  0  0
  5  6  1  0  0  0  0
  5  7  2  0  0  0  0
  6 12  1  0  0  0  0
  7  8  1  0  0  0  0
  7 38  1  0  0  0  0
  8  9  2  0  0  0  0
  8 39  1  0  0  0  0
  9 10  1  0  0  0  0
  9  3  1  0  0  0  0
 10 11  1  0  0  0  0
 11 21  1  0  0  0  0
 11  1  1  0  0  0  0
 11 40  1  6  0  0  0
 13 14  1  0  0  0  0
 13 20  1  0  0  0  0
 14 15  2  0  0  0  0
 15 16  1  0  0  0  0
 15 41  1  0  0  0  0
 16 17  2  0  0  0  0
 16 42  1  0  0  0  0
 17  1  1  0  0  0  0
 17 18  1  0  0  0  0
 18 19  2  0  0  0  0
 18 43  1  0  0  0  0
 19 14  1  0  0  0  0
 19 44  1  0  0  0  0
 21 22  2  0  0  0  0
 22 23  1  0  0  0  0
 22 45  1  0  0  0  0
 23 24  2  0  0  0  0
 23 46  1  0  0  0  0
 24 27  1  0  0  0  0
 24 25  1  0  0  0  0
 25 26  2  0  0  0  0
 25 47  1  0  0  0  0
 26 21  1  0  0  0  0
 26 48  1  0  0  0  0
 27 28  1  0  0  0  0
 28 29  1  0  0  0  0
 28 49  1  0  0  0  0
 28 50  1  0  0  0  0
 29 30  1  0  0  0  0
 29 51  1  0  0  0  0
 29 52  1  0  0  0  0
 30 31  1  0  0  0  0
 31 32  1  0  0  0  0
 31 53  1  0  0  0  0
 31 54  1  0  0  0  0
 32 33  1  0  0  0  0
 32 55  1  0  0  0  0
 32 56  1  0  0  0  0
 33 34  1  0  0  0  0
 33 35  1  0  0  0  0
 33 57  1  1  0  0  0
 35 30  1  0  0  0  0
 35 58  1  0  0  0  0
 35 59  1  0  0  0  0
M  END
>  <minimizedAffinity>
-8.51214

$$$$
CHEMBL184679
 OpenBabel01042214213D

 59 63  0  0  0  0  0  0  0  0999 V2000
   39.6378   -0.6158   15.2216 C   0  0  1  0  0  0  0  0  0  0  0  0
   38.5377    0.6830   14.5622 S   0  0  0  0  0  0  0  0  0  0  0  0
   38.4232    1.5598   16.1234 C   0  0  0  0  0  0  0  0  0  0  0  0
   38.3522    2.9584   16.1053 C   0  0  0  0  0  0  0  0  0  0  0  0
   38.1734    3.6727   17.2936 C   0  0  0  0  0  0  0  0  0  0  0  0
   38.0901    5.0628   17.2551 O   0  0  0  0  0  0  0  0  0  0  0  0
   38.0722    2.9847   18.5090 C   0  0  0  0  0  0  0  0  0  0  0  0
   38.1686    1.5910   18.5354 C   0  0  0  0  0  0  0  0  0  0  0  0
   38.3654    0.8703   17.3518 C   0  0  0  0  0  0  0  0  0  0  0  0
   38.5516   -0.5181   17.4418 O   0  0  0  0  0  0  0  0  0  0  0  0
   38.9357   -1.3860   16.3678 C   0  0  1  0  0  0  0  0  0  0  0  0
   37.9462    5.6073   18.0967 H   0  0  0  0  0  0  0  0  0  0  0  0
   41.4868   -4.2747   11.2216 O   0  0  0  0  0  0  0  0  0  0  0  0
   41.0310   -3.3711   12.1788 C   0  0  0  0  0  0  0  0  0  0  0  0
   41.6816   -3.2853   13.4128 C   0  0  0  0  0  0  0  0  0  0  0  0
   41.2345   -2.3844   14.3837 C   0  0  0  0  0  0  0  0  0  0  0  0
   40.1355   -1.5451   14.1285 C   0  0  0  0  0  0  0  0  0  0  0  0
   39.4767   -1.6492   12.8864 C   0  0  0  0  0  0  0  0  0  0  0  0
   39.9256   -2.5520   11.9187 C   0  0  0  0  0  0  0  0  0  0  0  0
   41.0360   -4.3613   10.3181 H   0  0  0  0  0  0  0  0  0  0  0  0
   37.7467   -2.2111   15.9090 C   0  0  0  0  0  0  0  0  0  0  0  0
   37.9208   -3.5695   15.5913 C   0  0  0  0  0  0  0  0  0  0  0  0
   36.8487   -4.3345   15.1252 C   0  0  0  0  0  0  0  0  0  0  0  0
   35.5770   -3.7530   14.9701 C   0  0  0  0  0  0  0  0  0  0  0  0
   35.4004   -2.4036   15.2931 C   0  0  0  0  0  0  0  0  0  0  0  0
   36.4718   -1.6372   15.7589 C   0  0  0  0  0  0  0  0  0  0  0  0
   34.4712   -4.4758   14.5001 O   0  0  0  0  0  0  0  0  0  0  0  0
   33.1762   -4.4449   15.0956 C   0  0  0  0  0  0  0  0  0  0  0  0
   33.1647   -5.3100   16.3558 C   0  0  0  0  0  0  0  0  0  0  0  0
   32.3352   -4.6984   17.4132 N   0  0  0  0  0  0  0  0  0  0  0  0
   31.4294   -3.6628   16.9011 C   0  0  0  0  0  0  0  0  0  0  0  0
   31.1941   -2.6760   18.0369 C   0  0  0  0  0  0  0  0  0  0  0  0
   32.2817   -2.9651   19.0608 C   0  0  1  0  0  0  0  0  0  0  0  0
   31.7202   -3.4602   20.2276 F   0  0  0  0  0  0  0  0  0  0  0  0
   33.1617   -4.0234   18.4160 C   0  0  0  0  0  0  0  0  0  0  0  0
   40.5064   -0.1416   15.6286 H   0  0  0  0  0  0  0  0  0  0  0  0
   38.4323    3.4646   15.2096 H   0  0  0  0  0  0  0  0  0  0  0  0
   37.9262    3.5078   19.3866 H   0  0  0  0  0  0  0  0  0  0  0  0
   38.0941    1.0893   19.4342 H   0  0  0  0  0  0  0  0  0  0  0  0
   39.6715   -2.0742   16.7281 H   0  0  0  0  0  0  0  0  0  0  0  0
   42.4952   -3.8894   13.6080 H   0  0  0  0  0  0  0  0  0  0  0  0
   41.7151   -2.3349   15.2956 H   0  0  0  0  0  0  0  0  0  0  0  0
   38.6567   -1.0541   12.6903 H   0  0  0  0  0  0  0  0  0  0  0  0
   39.4410   -2.6151   11.0098 H   0  0  0  0  0  0  0  0  0  0  0  0
   38.8493   -4.0057   15.7034 H   0  0  0  0  0  0  0  0  0  0  0  0
   36.9902   -5.3302   14.8937 H   0  0  0  0  0  0  0  0  0  0  0  0
   34.4700   -1.9700   15.1864 H   0  0  0  0  0  0  0  0  0  0  0  0
   36.3265   -0.6430   15.9944 H   0  0  0  0  0  0  0  0  0  0  0  0
   32.4561   -4.8217   14.3996 H   0  0  0  0  0  0  0  0  0  0  0  0
   32.9317   -3.4366   15.3572 H   0  0  0  0  0  0  0  0  0  0  0  0
   34.1667   -5.4166   16.7156 H   0  0  0  0  0  0  0  0  0  0  0  0
   32.7502   -6.2650   16.1086 H   0  0  0  0  0  0  0  0  0  0  0  0
   30.5021   -4.1026   16.5984 H   0  0  0  0  0  0  0  0  0  0  0  0
   31.8531   -3.1717   16.0501 H   0  0  0  0  0  0  0  0  0  0  0  0
   30.2261   -2.8259   18.4676 H   0  0  0  0  0  0  0  0  0  0  0  0
   31.2307   -1.6626   17.6954 H   0  0  0  0  0  0  0  0  0  0  0  0
   32.8327   -2.0856   19.3211 H   0  0  0  0  0  0  0  0  0  0  0  0
   33.4959   -4.7245   19.1520 H   0  0  0  0  0  0  0  0  0  0  0  0
   34.0297   -3.5848   17.9698 H   0  0  0  0  0  0  0  0  0  0  0  0
  1  2  1  0  0  0  0
  1 36  1  1  0  0  0
  2  3  1  0  0  0  0
  3  4  2  0  0  0  0
  4  5  1  0  0  0  0
  4 37  1  0  0  0  0
  5  6  1  0  0  0  0
  5  7  2  0  0  0  0
  6 12  1  0  0  0  0
  7  8  1  0  0  0  0
  7 38  1  0  0  0  0
  8  9  2  0  0  0  0
  8 39  1  0  0  0  0
  9 10  1  0  0  0  0
  9  3  1  0  0  0  0
 10 11  1  0  0  0  0
 11 21  1  0  0  0  0
 11  1  1  0  0  0  0
 11 40  1  1  0  0  0
 13 14  1  0  0  0  0
 13 20  1  0  0  0  0
 14 15  2  0  0  0  0
 15 16  1  0  0  0  0
 15 41  1  0  0  0  0
 16 17  2  0  0  0  0
 16 42  1  0  0  0  0
 17  1  1  0  0  0  0
 17 18  1  0  0  0  0
 18 19  2  0  0  0  0
 18 43  1  0  0  0  0
 19 14  1  0  0  0  0
 19 44  1  0  0  0  0
 21 22  2  0  0  0  0
 22 23  1  0  0  0  0
 22 45  1  0  0  0  0
 23 24  2  0  0  0  0
 23 46  1  0  0  0  0
 24 27  1  0  0  0  0
 24 25  1  0  0  0  0
 25 26  2  0  0  0  0
 25 47  1  0  0  0  0
 26 21  1  0  0  0  0
 26 48  1  0  0  0  0
 27 28  1  0  0  0  0
 28 29  1  0  0  0  0
 28 49  1  0  0  0  0
 28 50  1  0  0  0  0
 29 30  1  0  0  0  0
 29 51  1  0  0  0  0
 29 52  1  0  0  0  0
 30 31  1  0  0  0  0
 31 32  1  0  0  0  0
 31 53  1  0  0  0  0
 31 54  1  0  0  0  0
 32 33  1  0  0  0  0
 32 55  1  0  0  0  0
 32 56  1  0  0  0  0
 33 34  1  0  0  0  0
 33 35  1  0  0  0  0
 33 57  1  1  0  0  0
 35 30  1  0  0  0  0
 35 58  1  0  0  0  0
 35 59  1  0  0  0  0
M  END
>  <minimizedAffinity>
-8.54640

$$$$
CHEMBL185114
 OpenBabel01042214213D

 60 64  0  0  0  0  0  0  0  0999 V2000
   38.0662   -0.1399   17.6139 C   0  0  1  0  0  0  0  0  0  0  0  0
   38.6883    1.4538   16.9888 S   0  0  0  0  0  0  0  0  0  0  0  0
   37.1463    1.9330   16.2199 C   0  0  0  0  0  0  0  0  0  0  0  0
   37.1779    2.5924   14.9862 C   0  0  0  0  0  0  0  0  0  0  0  0
   35.9943    3.0442   14.3963 C   0  0  0  0  0  0  0  0  0  0  0  0
   36.0436    3.7045   13.1728 O   0  0  0  0  0  0  0  0  0  0  0  0
   34.7722    2.8364   15.0478 C   0  0  0  0  0  0  0  0  0  0  0  0
   34.7357    2.1555   16.2673 C   0  0  0  0  0  0  0  0  0  0  0  0
   35.9158    1.6767   16.8469 C   0  0  0  0  0  0  0  0  0  0  0  0
   35.8204    0.8781   17.9937 O   0  0  0  0  0  0  0  0  0  0  0  0
   36.8809    0.1141   18.5864 C   0  0  1  0  0  0  0  0  0  0  0  0
   35.2016    4.0283   12.7103 H   0  0  0  0  0  0  0  0  0  0  0  0
   37.4359   -3.9021   13.3333 O   0  0  0  0  0  0  0  0  0  0  0  0
   37.5823   -2.9836   14.3696 C   0  0  0  0  0  0  0  0  0  0  0  0
   38.8067   -2.8379   15.0221 C   0  0  0  0  0  0  0  0  0  0  0  0
   38.9398   -1.9188   16.0643 C   0  0  0  0  0  0  0  0  0  0  0  0
   37.8475   -1.1342   16.4790 C   0  0  0  0  0  0  0  0  0  0  0  0
   36.6227   -1.2789   15.8019 C   0  0  0  0  0  0  0  0  0  0  0  0
   36.4951   -2.2007   14.7609 C   0  0  0  0  0  0  0  0  0  0  0  0
   38.2064   -4.4800   13.0209 H   0  0  0  0  0  0  0  0  0  0  0  0
   36.3483   -1.1772   19.1911 C   0  0  0  0  0  0  0  0  0  0  0  0
   34.9687   -1.4655   19.2181 C   0  0  0  0  0  0  0  0  0  0  0  0
   34.4996   -2.6615   19.7672 C   0  0  0  0  0  0  0  0  0  0  0  0
   35.4034   -3.5972   20.3073 C   0  0  0  0  0  0  0  0  0  0  0  0
   36.7720   -3.3099   20.2911 C   0  0  0  0  0  0  0  0  0  0  0  0
   37.2395   -2.1096   19.7509 C   0  0  0  0  0  0  0  0  0  0  0  0
   34.9905   -4.8188   20.8623 O   0  0  0  0  0  0  0  0  0  0  0  0
   35.4710   -6.1076   20.4812 C   0  0  0  0  0  0  0  0  0  0  0  0
   34.4735   -6.7919   19.5430 C   0  0  0  0  0  0  0  0  0  0  0  0
   34.8846   -6.6560   18.1327 N   0  0  0  0  0  0  0  0  0  0  0  0
   36.3198   -6.3607   18.0145 C   0  0  0  0  0  0  0  0  0  0  0  0
   36.5017   -5.3333   16.9026 C   0  0  0  0  0  0  0  0  0  0  0  0
   35.1160   -5.0980   16.3334 C   0  0  1  0  0  0  0  0  0  0  0  0
   34.9188   -5.8884   15.1910 O   0  0  0  0  0  0  0  0  0  0  0  0
   34.1910   -5.5643   17.4401 C   0  0  0  0  0  0  0  0  0  0  0  0
   35.3153   -5.3905   14.4332 H   0  0  0  0  0  0  0  0  0  0  0  0
   38.7981   -0.6406   18.2126 H   0  0  0  0  0  0  0  0  0  0  0  0
   38.0801    2.7459   14.5093 H   0  0  0  0  0  0  0  0  0  0  0  0
   33.8975    3.1866   14.6267 H   0  0  0  0  0  0  0  0  0  0  0  0
   33.8327    2.0048   16.7436 H   0  0  0  0  0  0  0  0  0  0  0  0
   37.2845    0.7074   19.3802 H   0  0  0  0  0  0  0  0  0  0  0  0
   39.6154   -3.4105   14.7338 H   0  0  0  0  0  0  0  0  0  0  0  0
   39.8511   -1.8133   16.5369 H   0  0  0  0  0  0  0  0  0  0  0  0
   35.8136   -0.7001   16.0764 H   0  0  0  0  0  0  0  0  0  0  0  0
   35.5895   -2.3040   14.2769 H   0  0  0  0  0  0  0  0  0  0  0  0
   34.2977   -0.7855   18.8279 H   0  0  0  0  0  0  0  0  0  0  0  0
   33.4870   -2.8602   19.7771 H   0  0  0  0  0  0  0  0  0  0  0  0
   37.4423   -3.9905   20.6816 H   0  0  0  0  0  0  0  0  0  0  0  0
   38.2509   -1.9047   19.7628 H   0  0  0  0  0  0  0  0  0  0  0  0
   35.6011   -6.7087   21.3568 H   0  0  0  0  0  0  0  0  0  0  0  0
   36.4051   -5.9936   19.9719 H   0  0  0  0  0  0  0  0  0  0  0  0
   33.5107   -6.3428   19.6703 H   0  0  0  0  0  0  0  0  0  0  0  0
   34.4404   -7.8333   19.7864 H   0  0  0  0  0  0  0  0  0  0  0  0
   36.8555   -7.2550   17.7732 H   0  0  0  0  0  0  0  0  0  0  0  0
   36.6968   -5.9768   18.9394 H   0  0  0  0  0  0  0  0  0  0  0  0
   37.1564   -5.7134   16.1464 H   0  0  0  0  0  0  0  0  0  0  0  0
   36.9383   -4.4275   17.2683 H   0  0  0  0  0  0  0  0  0  0  0  0
   34.9543   -4.0805   16.0446 H   0  0  0  0  0  0  0  0  0  0  0  0
   33.2687   -5.9160   17.0270 H   0  0  0  0  0  0  0  0  0  0  0  0
   33.9601   -4.7650   18.1130 H   0  0  0  0  0  0  0  0  0  0  0  0
  1  2  1  0  0  0  0
  1 37  1  1  0  0  0
  2  3  1  0  0  0  0
  3  4  2  0  0  0  0
  4  5  1  0  0  0  0
  4 38  1  0  0  0  0
  5  6  1  0  0  0  0
  5  7  2  0  0  0  0
  6 12  1  0  0  0  0
  7  8  1  0  0  0  0
  7 39  1  0  0  0  0
  8  9  2  0  0  0  0
  8 40  1  0  0  0  0
  9 10  1  0  0  0  0
  9  3  1  0  0  0  0
 10 11  1  0  0  0  0
 11 21  1  0  0  0  0
 11  1  1  0  0  0  0
 11 41  1  1  0  0  0
 13 14  1  0  0  0  0
 13 20  1  0  0  0  0
 14 15  2  0  0  0  0
 15 16  1  0  0  0  0
 15 42  1  0  0  0  0
 16 17  2  0  0  0  0
 16 43  1  0  0  0  0
 17  1  1  0  0  0  0
 17 18  1  0  0  0  0
 18 19  2  0  0  0  0
 18 44  1  0  0  0  0
 19 14  1  0  0  0  0
 19 45  1  0  0  0  0
 21 22  2  0  0  0  0
 22 23  1  0  0  0  0
 22 46  1  0  0  0  0
 23 24  2  0  0  0  0
 23 47  1  0  0  0  0
 24 27  1  0  0  0  0
 24 25  1  0  0  0  0
 25 26  2  0  0  0  0
 25 48  1  0  0  0  0
 26 21  1  0  0  0  0
 26 49  1  0  0  0  0
 27 28  1  0  0  0  0
 28 29  1  0  0  0  0
 28 50  1  0  0  0  0
 28 51  1  0  0  0  0
 29 30  1  0  0  0  0
 29 52  1  0  0  0  0
 29 53  1  0  0  0  0
 30 31  1  0  0  0  0
 31 32  1  0  0  0  0
 31 54  1  0  0  0  0
 31 55  1  0  0  0  0
 32 33  1  0  0  0  0
 32 56  1  0  0  0  0
 32 57  1  0  0  0  0
 33 34  1  0  0  0  0
 33 35  1  0  0  0  0
 33 58  1  6  0  0  0
 34 36  1  0  0  0  0
 35 30  1  0  0  0  0
 35 59  1  0  0  0  0
 35 60  1  0  0  0  0
M  END
>  <minimizedAffinity>
-8.55276

$$$$
CHEMBL362718
 OpenBabel01042214213D

 60 64  0  0  0  0  0  0  0  0999 V2000
   35.6102   -1.4249   16.7691 C   0  0  1  0  0  0  0  0  0  0  0  0
   36.0121   -1.5686   14.9951 S   0  0  0  0  0  0  0  0  0  0  0  0
   37.7167   -2.0622   15.2503 C   0  0  0  0  0  0  0  0  0  0  0  0
   38.6927   -1.6127   14.3524 C   0  0  0  0  0  0  0  0  0  0  0  0
   40.0212   -2.0390   14.4814 C   0  0  0  0  0  0  0  0  0  0  0  0
   40.9969   -1.6059   13.5865 O   0  0  0  0  0  0  0  0  0  0  0  0
   40.3716   -2.9118   15.5155 C   0  0  0  0  0  0  0  0  0  0  0  0
   39.4055   -3.3402   16.4297 C   0  0  0  0  0  0  0  0  0  0  0  0
   38.0804   -2.9042   16.3173 C   0  0  0  0  0  0  0  0  0  0  0  0
   37.1735   -3.2622   17.3242 O   0  0  0  0  0  0  0  0  0  0  0  0
   35.8128   -2.8203   17.4234 C   0  0  1  0  0  0  0  0  0  0  0  0
   40.7755   -0.9717   12.8279 H   0  0  0  0  0  0  0  0  0  0  0  0
   38.3077    3.1428   18.9596 O   0  0  0  0  0  0  0  0  0  0  0  0
   37.6525    2.0306   18.4360 C   0  0  0  0  0  0  0  0  0  0  0  0
   37.7501    0.8006   19.0902 C   0  0  0  0  0  0  0  0  0  0  0  0
   37.1002   -0.3258   18.5776 C   0  0  0  0  0  0  0  0  0  0  0  0
   36.3377   -0.2372   17.3929 C   0  0  0  0  0  0  0  0  0  0  0  0
   36.2447    1.0100   16.7478 C   0  0  0  0  0  0  0  0  0  0  0  0
   36.8971    2.1330   17.2629 C   0  0  0  0  0  0  0  0  0  0  0  0
   38.2562    4.0486   18.5082 H   0  0  0  0  0  0  0  0  0  0  0  0
   35.3465   -2.9471   18.8700 C   0  0  0  0  0  0  0  0  0  0  0  0
   34.0279   -2.6628   19.2856 C   0  0  0  0  0  0  0  0  0  0  0  0
   33.6532   -2.8217   20.6225 C   0  0  0  0  0  0  0  0  0  0  0  0
   34.5698   -3.2830   21.5703 C   0  0  0  0  0  0  0  0  0  0  0  0
   35.8772   -3.5964   21.1622 C   0  0  0  0  0  0  0  0  0  0  0  0
   36.2552   -3.4376   19.8264 C   0  0  0  0  0  0  0  0  0  0  0  0
   34.1423   -3.4171   22.8986 O   0  0  0  0  0  0  0  0  0  0  0  0
   32.7813   -3.5531   23.3006 C   0  0  0  0  0  0  0  0  0  0  0  0
   32.2655   -2.2270   23.8711 C   0  0  0  0  0  0  0  0  0  0  0  0
   31.6221   -2.3975   25.1967 N   0  0  0  0  0  0  0  0  0  0  0  0
   30.5903   -1.3630   25.4733 C   0  0  0  0  0  0  0  0  0  0  0  0
   31.0109   -0.2999   26.5032 C   0  0  0  0  0  0  0  0  0  0  0  0
   32.7247    0.2404   26.2234 S   0  0  0  0  0  0  0  0  0  0  0  0
   33.5017   -1.3893   26.5457 C   0  0  0  0  0  0  0  0  0  0  0  0
   32.5661   -2.5922   26.3195 C   0  0  0  0  0  0  0  0  0  0  0  0
   34.5840   -1.1791   16.9460 H   0  0  0  0  0  0  0  0  0  0  0  0
   38.4324   -0.9648   13.5925 H   0  0  0  0  0  0  0  0  0  0  0  0
   41.3458   -3.2405   15.6040 H   0  0  0  0  0  0  0  0  0  0  0  0
   39.6709   -3.9823   17.1928 H   0  0  0  0  0  0  0  0  0  0  0  0
   35.1704   -3.4547   16.8491 H   0  0  0  0  0  0  0  0  0  0  0  0
   38.3051    0.7229   19.9568 H   0  0  0  0  0  0  0  0  0  0  0  0
   37.1785   -1.2297   19.0693 H   0  0  0  0  0  0  0  0  0  0  0  0
   35.6876    1.0962   15.8834 H   0  0  0  0  0  0  0  0  0  0  0  0
   36.8216    3.0402   16.7768 H   0  0  0  0  0  0  0  0  0  0  0  0
   33.3341   -2.3345   18.5958 H   0  0  0  0  0  0  0  0  0  0  0  0
   32.6889   -2.5958   20.9127 H   0  0  0  0  0  0  0  0  0  0  0  0
   36.5611   -3.9453   21.8518 H   0  0  0  0  0  0  0  0  0  0  0  0
   37.2147   -3.6836   19.5368 H   0  0  0  0  0  0  0  0  0  0  0  0
   32.7079   -4.3132   24.0501 H   0  0  0  0  0  0  0  0  0  0  0  0
   32.1902   -3.8221   22.4502 H   0  0  0  0  0  0  0  0  0  0  0  0
   31.5492   -1.8152   23.1912 H   0  0  0  0  0  0  0  0  0  0  0  0
   33.1050   -1.5754   23.9958 H   0  0  0  0  0  0  0  0  0  0  0  0
   29.7139   -1.8551   25.8402 H   0  0  0  0  0  0  0  0  0  0  0  0
   30.4251   -0.8447   24.5519 H   0  0  0  0  0  0  0  0  0  0  0  0
   30.9314   -0.7149   27.4862 H   0  0  0  0  0  0  0  0  0  0  0  0
   30.3661    0.5476   26.3996 H   0  0  0  0  0  0  0  0  0  0  0  0
   33.8319   -1.4080   27.5633 H   0  0  0  0  0  0  0  0  0  0  0  0
   34.3054   -1.4898   25.8465 H   0  0  0  0  0  0  0  0  0  0  0  0
   32.0013   -2.7557   27.2134 H   0  0  0  0  0  0  0  0  0  0  0  0
   33.1829   -3.4310   26.0727 H   0  0  0  0  0  0  0  0  0  0  0  0
  1  2  1  0  0  0  0
  1 36  1  1  0  0  0
  2  3  1  0  0  0  0
  3  4  2  0  0  0  0
  4  5  1  0  0  0  0
  4 37  1  0  0  0  0
  5  6  1  0  0  0  0
  5  7  2  0  0  0  0
  6 12  1  0  0  0  0
  7  8  1  0  0  0  0
  7 38  1  0  0  0  0
  8  9  2  0  0  0  0
  8 39  1  0  0  0  0
  9 10  1  0  0  0  0
  9  3  1  0  0  0  0
 10 11  1  0  0  0  0
 11 21  1  0  0  0  0
 11  1  1  0  0  0  0
 11 40  1  6  0  0  0
 13 14  1  0  0  0  0
 13 20  1  0  0  0  0
 14 15  2  0  0  0  0
 15 16  1  0  0  0  0
 15 41  1  0  0  0  0
 16 17  2  0  0  0  0
 16 42  1  0  0  0  0
 17  1  1  0  0  0  0
 17 18  1  0  0  0  0
 18 19  2  0  0  0  0
 18 43  1  0  0  0  0
 19 14  1  0  0  0  0
 19 44  1  0  0  0  0
 21 22  2  0  0  0  0
 22 23  1  0  0  0  0
 22 45  1  0  0  0  0
 23 24  2  0  0  0  0
 23 46  1  0  0  0  0
 24 27  1  0  0  0  0
 24 25  1  0  0  0  0
 25 26  2  0  0  0  0
 25 47  1  0  0  0  0
 26 21  1  0  0  0  0
 26 48  1  0  0  0  0
 27 28  1  0  0  0  0
 28 29  1  0  0  0  0
 28 49  1  0  0  0  0
 28 50  1  0  0  0  0
 29 30  1  0  0  0  0
 29 51  1  0  0  0  0
 29 52  1  0  0  0  0
 30 31  1  0  0  0  0
 31 32  1  0  0  0  0
 31 53  1  0  0  0  0
 31 54  1  0  0  0  0
 32 33  1  0  0  0  0
 32 55  1  0  0  0  0
 32 56  1  0  0  0  0
 33 34  1  0  0  0  0
 34 35  1  0  0  0  0
 34 57  1  0  0  0  0
 34 58  1  0  0  0  0
 35 30  1  0  0  0  0
 35 59  1  0  0  0  0
 35 60  1  0  0  0  0
M  END
>  <minimizedAffinity>
-8.55289

$$$$
CHEMBL184679
 OpenBabel01042214213D

 59 63  0  0  0  0  0  0  0  0999 V2000
   35.4350   -2.7986   17.7049 C   0  0  1  0  0  0  0  0  0  0  0  0
   34.4434   -1.2771   17.8888 S   0  0  0  0  0  0  0  0  0  0  0  0
   35.8748   -0.1972   17.9524 C   0  0  0  0  0  0  0  0  0  0  0  0
   35.7874    1.0702   17.3630 C   0  0  0  0  0  0  0  0  0  0  0  0
   36.8492    1.9736   17.4681 C   0  0  0  0  0  0  0  0  0  0  0  0
   36.7390    3.2355   16.8883 O   0  0  0  0  0  0  0  0  0  0  0  0
   38.0089    1.6047   18.1609 C   0  0  0  0  0  0  0  0  0  0  0  0
   38.1113    0.3320   18.7282 C   0  0  0  0  0  0  0  0  0  0  0  0
   37.0594   -0.5840   18.6119 C   0  0  0  0  0  0  0  0  0  0  0  0
   37.2482   -1.8808   19.1152 O   0  0  0  0  0  0  0  0  0  0  0  0
   36.3599   -2.9908   18.9327 C   0  0  1  0  0  0  0  0  0  0  0  0
   37.4847    3.9170   16.9596 H   0  0  0  0  0  0  0  0  0  0  0  0
   32.1976   -7.4577   16.9194 O   0  0  0  0  0  0  0  0  0  0  0  0
   32.9721   -6.3136   17.0968 C   0  0  0  0  0  0  0  0  0  0  0  0
   34.3450   -6.4378   17.3273 C   0  0  0  0  0  0  0  0  0  0  0  0
   35.1347   -5.2987   17.5089 C   0  0  0  0  0  0  0  0  0  0  0  0
   34.5631   -4.0154   17.4492 C   0  0  0  0  0  0  0  0  0  0  0  0
   33.1750   -3.9007   17.2306 C   0  0  0  0  0  0  0  0  0  0  0  0
   32.3884   -5.0417   17.0510 C   0  0  0  0  0  0  0  0  0  0  0  0
   31.1997   -7.4009   16.7515 H   0  0  0  0  0  0  0  0  0  0  0  0
   35.6107   -3.2807   20.2209 C   0  0  0  0  0  0  0  0  0  0  0  0
   34.4259   -2.5819   20.5116 C   0  0  0  0  0  0  0  0  0  0  0  0
   33.7457   -2.8024   21.7118 C   0  0  0  0  0  0  0  0  0  0  0  0
   34.2388   -3.7315   22.6461 C   0  0  0  0  0  0  0  0  0  0  0  0
   35.4132   -4.4333   22.3550 C   0  0  0  0  0  0  0  0  0  0  0  0
   36.0948   -4.2135   21.1552 C   0  0  0  0  0  0  0  0  0  0  0  0
   33.5971   -3.9840   23.8670 O   0  0  0  0  0  0  0  0  0  0  0  0
   32.4924   -3.2340   24.3668 C   0  0  0  0  0  0  0  0  0  0  0  0
   32.9615   -2.3036   25.4852 C   0  0  0  0  0  0  0  0  0  0  0  0
   31.8308   -1.5434   26.0542 N   0  0  0  0  0  0  0  0  0  0  0  0
   31.8901   -1.4416   27.5176 C   0  0  0  0  0  0  0  0  0  0  0  0
   30.4557   -1.3158   28.0135 C   0  0  0  0  0  0  0  0  0  0  0  0
   29.5804   -1.7358   26.8421 C   0  0  1  0  0  0  0  0  0  0  0  0
   28.8420   -0.6549   26.3856 F   0  0  0  0  0  0  0  0  0  0  0  0
   30.5513   -2.1951   25.7667 C   0  0  0  0  0  0  0  0  0  0  0  0
   36.0557   -2.6891   16.8402 H   0  0  0  0  0  0  0  0  0  0  0  0
   34.9343    1.3388   16.8481 H   0  0  0  0  0  0  0  0  0  0  0  0
   38.7891    2.2739   18.2526 H   0  0  0  0  0  0  0  0  0  0  0  0
   38.9688    0.0654   19.2367 H   0  0  0  0  0  0  0  0  0  0  0  0
   36.9393   -3.8616   18.7071 H   0  0  0  0  0  0  0  0  0  0  0  0
   34.7774   -7.3741   17.3636 H   0  0  0  0  0  0  0  0  0  0  0  0
   36.1459   -5.4005   17.6883 H   0  0  0  0  0  0  0  0  0  0  0  0
   32.7365   -2.9669   17.2030 H   0  0  0  0  0  0  0  0  0  0  0  0
   31.3744   -4.9466   16.8841 H   0  0  0  0  0  0  0  0  0  0  0  0
   34.0551   -1.8996   19.8319 H   0  0  0  0  0  0  0  0  0  0  0  0
   32.8780   -2.2816   21.9139 H   0  0  0  0  0  0  0  0  0  0  0  0
   35.7797   -5.1199   23.0327 H   0  0  0  0  0  0  0  0  0  0  0  0
   36.9595   -4.7394   20.9533 H   0  0  0  0  0  0  0  0  0  0  0  0
   31.7520   -3.9047   24.7499 H   0  0  0  0  0  0  0  0  0  0  0  0
   32.0742   -2.6500   23.5737 H   0  0  0  0  0  0  0  0  0  0  0  0
   33.6805   -1.6168   25.0898 H   0  0  0  0  0  0  0  0  0  0  0  0
   33.3961   -2.8980   26.2616 H   0  0  0  0  0  0  0  0  0  0  0  0
   32.4547   -0.5788   27.8034 H   0  0  0  0  0  0  0  0  0  0  0  0
   32.3667   -2.3009   27.9412 H   0  0  0  0  0  0  0  0  0  0  0  0
   30.2447   -0.3050   28.2941 H   0  0  0  0  0  0  0  0  0  0  0  0
   30.2803   -1.9229   28.8769 H   0  0  0  0  0  0  0  0  0  0  0  0
   28.8862   -2.5034   27.1140 H   0  0  0  0  0  0  0  0  0  0  0  0
   30.1970   -1.9033   24.8001 H   0  0  0  0  0  0  0  0  0  0  0  0
   30.6517   -3.2604   25.7661 H   0  0  0  0  0  0  0  0  0  0  0  0
  1  2  1  0  0  0  0
  1 36  1  6  0  0  0
  2  3  1  0  0  0  0
  3  4  2  0  0  0  0
  4  5  1  0  0  0  0
  4 37  1  0  0  0  0
  5  6  1  0  0  0  0
  5  7  2  0  0  0  0
  6 12  1  0  0  0  0
  7  8  1  0  0  0  0
  7 38  1  0  0  0  0
  8  9  2  0  0  0  0
  8 39  1  0  0  0  0
  9 10  1  0  0  0  0
  9  3  1  0  0  0  0
 10 11  1  0  0  0  0
 11 21  1  0  0  0  0
 11  1  1  0  0  0  0
 11 40  1  6  0  0  0
 13 14  1  0  0  0  0
 13 20  1  0  0  0  0
 14 15  2  0  0  0  0
 15 16  1  0  0  0  0
 15 41  1  0  0  0  0
 16 17  2  0  0  0  0
 16 42  1  0  0  0  0
 17  1  1  0  0  0  0
 17 18  1  0  0  0  0
 18 19  2  0  0  0  0
 18 43  1  0  0  0  0
 19 14  1  0  0  0  0
 19 44  1  0  0  0  0
 21 22  2  0  0  0  0
 22 23  1  0  0  0  0
 22 45  1  0  0  0  0
 23 24  2  0  0  0  0
 23 46  1  0  0  0  0
 24 27  1  0  0  0  0
 24 25  1  0  0  0  0
 25 26  2  0  0  0  0
 25 47  1  0  0  0  0
 26 21  1  0  0  0  0
 26 48  1  0  0  0  0
 27 28  1  0  0  0  0
 28 29  1  0  0  0  0
 28 49  1  0  0  0  0
 28 50  1  0  0  0  0
 29 30  1  0  0  0  0
 29 51  1  0  0  0  0
 29 52  1  0  0  0  0
 30 31  1  0  0  0  0
 31 32  1  0  0  0  0
 31 53  1  0  0  0  0
 31 54  1  0  0  0  0
 32 33  1  0  0  0  0
 32 55  1  0  0  0  0
 32 56  1  0  0  0  0
 33 34  1  0  0  0  0
 33 35  1  0  0  0  0
 33 57  1  1  0  0  0
 35 30  1  0  0  0  0
 35 58  1  0  0  0  0
 35 59  1  0  0  0  0
M  END
>  <minimizedAffinity>
-8.57057

$$$$
CHEMBL185114
 OpenBabel01042214213D

 60 64  0  0  0  0  0  0  0  0999 V2000
   37.6115    0.7371   18.1825 C   0  0  1  0  0  0  0  0  0  0  0  0
   37.9756    2.5182   18.0679 S   0  0  0  0  0  0  0  0  0  0  0  0
   36.8054    2.8327   16.7525 C   0  0  0  0  0  0  0  0  0  0  0  0
   37.1500    3.7311   15.7365 C   0  0  0  0  0  0  0  0  0  0  0  0
   36.2290    4.0528   14.7359 C   0  0  0  0  0  0  0  0  0  0  0  0
   36.5847    4.9534   13.7369 O   0  0  0  0  0  0  0  0  0  0  0  0
   34.9544    3.4732   14.7550 C   0  0  0  0  0  0  0  0  0  0  0  0
   34.6170    2.5563   15.7538 C   0  0  0  0  0  0  0  0  0  0  0  0
   35.5464    2.2102   16.7409 C   0  0  0  0  0  0  0  0  0  0  0  0
   35.2186    1.1843   17.6366 O   0  0  0  0  0  0  0  0  0  0  0  0
   36.1153    0.5387   18.5524 C   0  0  1  0  0  0  0  0  0  0  0  0
   35.9461    5.1937   12.9872 H   0  0  0  0  0  0  0  0  0  0  0  0
   39.7927   -2.0255   13.6564 O   0  0  0  0  0  0  0  0  0  0  0  0
   39.2555   -1.3531   14.7511 C   0  0  0  0  0  0  0  0  0  0  0  0
   40.0889   -0.7497   15.6931 C   0  0  0  0  0  0  0  0  0  0  0  0
   39.5392   -0.0844   16.7902 C   0  0  0  0  0  0  0  0  0  0  0  0
   38.1449   -0.0177   16.9699 C   0  0  0  0  0  0  0  0  0  0  0  0
   37.3151   -0.6160   16.0040 C   0  0  0  0  0  0  0  0  0  0  0  0
   37.8707   -1.2812   14.9092 C   0  0  0  0  0  0  0  0  0  0  0  0
   40.7924   -2.0898   13.5089 H   0  0  0  0  0  0  0  0  0  0  0  0
   35.7558   -0.9308   18.7202 C   0  0  0  0  0  0  0  0  0  0  0  0
   34.6292   -1.4922   18.0857 C   0  0  0  0  0  0  0  0  0  0  0  0
   34.3219   -2.8460   18.2424 C   0  0  0  0  0  0  0  0  0  0  0  0
   35.1355   -3.6704   19.0438 C   0  0  0  0  0  0  0  0  0  0  0  0
   36.2485   -3.1145   19.6828 C   0  0  0  0  0  0  0  0  0  0  0  0
   36.5494   -1.7587   19.5336 C   0  0  0  0  0  0  0  0  0  0  0  0
   34.8814   -5.0386   19.2290 O   0  0  0  0  0  0  0  0  0  0  0  0
   34.3277   -5.9192   18.2516 C   0  0  0  0  0  0  0  0  0  0  0  0
   35.4187   -6.4059   17.2943 C   0  0  0  0  0  0  0  0  0  0  0  0
   35.1741   -5.9331   15.9184 N   0  0  0  0  0  0  0  0  0  0  0  0
   36.0166   -4.7749   15.5875 C   0  0  0  0  0  0  0  0  0  0  0  0
   35.1755   -3.7933   14.7788 C   0  0  0  0  0  0  0  0  0  0  0  0
   33.8283   -4.4649   14.5950 C   0  0  1  0  0  0  0  0  0  0  0  0
   33.7719   -5.1088   13.3497 O   0  0  0  0  0  0  0  0  0  0  0  0
   33.7894   -5.4977   15.7038 C   0  0  0  0  0  0  0  0  0  0  0  0
   33.5186   -4.4182   12.6877 H   0  0  0  0  0  0  0  0  0  0  0  0
   38.1470    0.2768   18.9864 H   0  0  0  0  0  0  0  0  0  0  0  0
   38.0893    4.1584   15.7261 H   0  0  0  0  0  0  0  0  0  0  0  0
   34.2635    3.7236   14.0305 H   0  0  0  0  0  0  0  0  0  0  0  0
   33.6765    2.1317   15.7636 H   0  0  0  0  0  0  0  0  0  0  0  0
   35.9893    1.0188   19.5003 H   0  0  0  0  0  0  0  0  0  0  0  0
   41.1135   -0.7953   15.5787 H   0  0  0  0  0  0  0  0  0  0  0  0
   40.1634    0.3645   17.4786 H   0  0  0  0  0  0  0  0  0  0  0  0
   36.2895   -0.5629   16.1053 H   0  0  0  0  0  0  0  0  0  0  0  0
   37.2523   -1.7233   14.2112 H   0  0  0  0  0  0  0  0  0  0  0  0
   34.0246   -0.8964   17.4988 H   0  0  0  0  0  0  0  0  0  0  0  0
   33.4955   -3.2436   17.7691 H   0  0  0  0  0  0  0  0  0  0  0  0
   36.8526   -3.7111   20.2695 H   0  0  0  0  0  0  0  0  0  0  0  0
   37.3639   -1.3599   20.0262 H   0  0  0  0  0  0  0  0  0  0  0  0
   33.5757   -5.4002   17.6948 H   0  0  0  0  0  0  0  0  0  0  0  0
   33.8989   -6.7643   18.7484 H   0  0  0  0  0  0  0  0  0  0  0  0
   35.4336   -7.4758   17.2978 H   0  0  0  0  0  0  0  0  0  0  0  0
   36.3577   -6.0133   17.6245 H   0  0  0  0  0  0  0  0  0  0  0  0
   36.8592   -5.0926   15.0095 H   0  0  0  0  0  0  0  0  0  0  0  0
   36.3734   -4.3083   16.4819 H   0  0  0  0  0  0  0  0  0  0  0  0
   35.6314   -3.6048   13.8293 H   0  0  0  0  0  0  0  0  0  0  0  0
   35.0829   -2.8496   15.2745 H   0  0  0  0  0  0  0  0  0  0  0  0
   33.0126   -3.7733   14.6296 H   0  0  0  0  0  0  0  0  0  0  0  0
   33.1816   -6.3290   15.4131 H   0  0  0  0  0  0  0  0  0  0  0  0
   33.3701   -5.0879   16.5989 H   0  0  0  0  0  0  0  0  0  0  0  0
  1  2  1  0  0  0  0
  1 37  1  1  0  0  0
  2  3  1  0  0  0  0
  3  4  2  0  0  0  0
  4  5  1  0  0  0  0
  4 38  1  0  0  0  0
  5  6  1  0  0  0  0
  5  7  2  0  0  0  0
  6 12  1  0  0  0  0
  7  8  1  0  0  0  0
  7 39  1  0  0  0  0
  8  9  2  0  0  0  0
  8 40  1  0  0  0  0
  9 10  1  0  0  0  0
  9  3  1  0  0  0  0
 10 11  1  0  0  0  0
 11 21  1  0  0  0  0
 11  1  1  0  0  0  0
 11 41  1  1  0  0  0
 13 14  1  0  0  0  0
 13 20  1  0  0  0  0
 14 15  2  0  0  0  0
 15 16  1  0  0  0  0
 15 42  1  0  0  0  0
 16 17  2  0  0  0  0
 16 43  1  0  0  0  0
 17  1  1  0  0  0  0
 17 18  1  0  0  0  0
 18 19  2  0  0  0  0
 18 44  1  0  0  0  0
 19 14  1  0  0  0  0
 19 45  1  0  0  0  0
 21 22  2  0  0  0  0
 22 23  1  0  0  0  0
 22 46  1  0  0  0  0
 23 24  2  0  0  0  0
 23 47  1  0  0  0  0
 24 27  1  0  0  0  0
 24 25  1  0  0  0  0
 25 26  2  0  0  0  0
 25 48  1  0  0  0  0
 26 21  1  0  0  0  0
 26 49  1  0  0  0  0
 27 28  1  0  0  0  0
 28 29  1  0  0  0  0
 28 50  1  0  0  0  0
 28 51  1  0  0  0  0
 29 30  1  0  0  0  0
 29 52  1  0  0  0  0
 29 53  1  0  0  0  0
 30 31  1  0  0  0  0
 31 32  1  0  0  0  0
 31 54  1  0  0  0  0
 31 55  1  0  0  0  0
 32 33  1  0  0  0  0
 32 56  1  0  0  0  0
 32 57  1  0  0  0  0
 33 34  1  0  0  0  0
 33 35  1  0  0  0  0
 33 58  1  1  0  0  0
 34 36  1  0  0  0  0
 35 30  1  0  0  0  0
 35 59  1  0  0  0  0
 35 60  1  0  0  0  0
M  END
>  <minimizedAffinity>
-8.59513

$$$$
CHEMBL184679
 OpenBabel01042214213D

 59 63  0  0  0  0  0  0  0  0999 V2000
   36.8252   -2.4327   17.4596 C   0  0  1  0  0  0  0  0  0  0  0  0
   37.8386   -2.5715   18.9714 S   0  0  0  0  0  0  0  0  0  0  0  0
   36.4341   -2.9009   20.0383 C   0  0  0  0  0  0  0  0  0  0  0  0
   36.5967   -3.7891   21.1088 C   0  0  0  0  0  0  0  0  0  0  0  0
   35.5532   -4.0041   22.0140 C   0  0  0  0  0  0  0  0  0  0  0  0
   35.7377   -4.8799   23.0815 O   0  0  0  0  0  0  0  0  0  0  0  0
   34.3366   -3.3320   21.8437 C   0  0  0  0  0  0  0  0  0  0  0  0
   34.1605   -2.4648   20.7624 C   0  0  0  0  0  0  0  0  0  0  0  0
   35.1946   -2.2581   19.8421 C   0  0  0  0  0  0  0  0  0  0  0  0
   34.9365   -1.4531   18.7215 O   0  0  0  0  0  0  0  0  0  0  0  0
   35.8075   -1.2727   17.5976 C   0  0  1  0  0  0  0  0  0  0  0  0
   35.0063   -5.0455   23.7620 H   0  0  0  0  0  0  0  0  0  0  0  0
   39.9471   -1.7647   12.7043 O   0  0  0  0  0  0  0  0  0  0  0  0
   39.2049   -1.9362   13.8706 C   0  0  0  0  0  0  0  0  0  0  0  0
   37.8322   -2.1847   13.7855 C   0  0  0  0  0  0  0  0  0  0  0  0
   37.0742   -2.3572   14.9473 C   0  0  0  0  0  0  0  0  0  0  0  0
   37.6826   -2.2965   16.2136 C   0  0  0  0  0  0  0  0  0  0  0  0
   39.0651   -2.0310   16.2898 C   0  0  0  0  0  0  0  0  0  0  0  0
   39.8194   -1.8576   15.1262 C   0  0  0  0  0  0  0  0  0  0  0  0
   40.9436   -1.5823   12.7328 H   0  0  0  0  0  0  0  0  0  0  0  0
   36.4520    0.1009   17.6482 C   0  0  0  0  0  0  0  0  0  0  0  0
   36.3966    0.9398   16.5215 C   0  0  0  0  0  0  0  0  0  0  0  0
   37.0214    2.1894   16.5329 C   0  0  0  0  0  0  0  0  0  0  0  0
   37.7138    2.6255   17.6773 C   0  0  0  0  0  0  0  0  0  0  0  0
   37.7633    1.7954   18.8019 C   0  0  0  0  0  0  0  0  0  0  0  0
   37.1393    0.5453   18.7918 C   0  0  0  0  0  0  0  0  0  0  0  0
   38.3624    3.8673   17.7368 O   0  0  0  0  0  0  0  0  0  0  0  0
   38.6840    4.6636   16.5987 C   0  0  0  0  0  0  0  0  0  0  0  0
   39.2500    6.0094   17.0514 C   0  0  0  0  0  0  0  0  0  0  0  0
   39.6866    5.9560   18.4609 N   0  0  0  0  0  0  0  0  0  0  0  0
   38.9758    6.9150   19.3156 C   0  0  0  0  0  0  0  0  0  0  0  0
   39.9171    7.2774   20.4564 C   0  0  0  0  0  0  0  0  0  0  0  0
   41.2945    6.8058   20.0146 C   0  0  1  0  0  0  0  0  0  0  0  0
   41.7310    5.7740   20.8314 F   0  0  0  0  0  0  0  0  0  0  0  0
   41.1036    6.3006   18.5939 C   0  0  0  0  0  0  0  0  0  0  0  0
   36.2731   -3.3420   17.3441 H   0  0  0  0  0  0  0  0  0  0  0  0
   37.4920   -4.2878   21.2302 H   0  0  0  0  0  0  0  0  0  0  0  0
   33.5689   -3.4774   22.5179 H   0  0  0  0  0  0  0  0  0  0  0  0
   33.2613   -1.9730   20.6414 H   0  0  0  0  0  0  0  0  0  0  0  0
   35.2245   -1.3099   16.7012 H   0  0  0  0  0  0  0  0  0  0  0  0
   37.3764   -2.2411   12.8613 H   0  0  0  0  0  0  0  0  0  0  0  0
   36.0594   -2.5306   14.8750 H   0  0  0  0  0  0  0  0  0  0  0  0
   39.5236   -1.9642   17.2119 H   0  0  0  0  0  0  0  0  0  0  0  0
   40.8322   -1.6711   15.1926 H   0  0  0  0  0  0  0  0  0  0  0  0
   35.8896    0.6296   15.6779 H   0  0  0  0  0  0  0  0  0  0  0  0
   36.9748    2.7949   15.6985 H   0  0  0  0  0  0  0  0  0  0  0  0
   38.2655    2.1092   19.6471 H   0  0  0  0  0  0  0  0  0  0  0  0
   37.1831   -0.0561   19.6293 H   0  0  0  0  0  0  0  0  0  0  0  0
   37.8000    4.8272   16.0184 H   0  0  0  0  0  0  0  0  0  0  0  0
   39.4151    4.1542   16.0064 H   0  0  0  0  0  0  0  0  0  0  0  0
   38.4935    6.7591   16.9481 H   0  0  0  0  0  0  0  0  0  0  0  0
   40.0977    6.2436   16.4419 H   0  0  0  0  0  0  0  0  0  0  0  0
   38.0829    6.4705   19.7030 H   0  0  0  0  0  0  0  0  0  0  0  0
   38.6950    7.7858   18.7609 H   0  0  0  0  0  0  0  0  0  0  0  0
   39.6225    6.7793   21.3564 H   0  0  0  0  0  0  0  0  0  0  0  0
   39.9048    8.3274   20.6619 H   0  0  0  0  0  0  0  0  0  0  0  0
   42.0239    7.5867   20.0709 H   0  0  0  0  0  0  0  0  0  0  0  0
   41.7115    5.4365   18.4242 H   0  0  0  0  0  0  0  0  0  0  0  0
   41.3897    7.0427   17.8781 H   0  0  0  0  0  0  0  0  0  0  0  0
  1  2  1  0  0  0  0
  1 36  1  6  0  0  0
  2  3  1  0  0  0  0
  3  4  2  0  0  0  0
  4  5  1  0  0  0  0
  4 37  1  0  0  0  0
  5  6  1  0  0  0  0
  5  7  2  0  0  0  0
  6 12  1  0  0  0  0
  7  8  1  0  0  0  0
  7 38  1  0  0  0  0
  8  9  2  0  0  0  0
  8 39  1  0  0  0  0
  9 10  1  0  0  0  0
  9  3  1  0  0  0  0
 10 11  1  0  0  0  0
 11 21  1  0  0  0  0
 11  1  1  0  0  0  0
 11 40  1  6  0  0  0
 13 14  1  0  0  0  0
 13 20  1  0  0  0  0
 14 15  2  0  0  0  0
 15 16  1  0  0  0  0
 15 41  1  0  0  0  0
 16 17  2  0  0  0  0
 16 42  1  0  0  0  0
 17  1  1  0  0  0  0
 17 18  1  0  0  0  0
 18 19  2  0  0  0  0
 18 43  1  0  0  0  0
 19 14  1  0  0  0  0
 19 44  1  0  0  0  0
 21 22  2  0  0  0  0
 22 23  1  0  0  0  0
 22 45  1  0  0  0  0
 23 24  2  0  0  0  0
 23 46  1  0  0  0  0
 24 27  1  0  0  0  0
 24 25  1  0  0  0  0
 25 26  2  0  0  0  0
 25 47  1  0  0  0  0
 26 21  1  0  0  0  0
 26 48  1  0  0  0  0
 27 28  1  0  0  0  0
 28 29  1  0  0  0  0
 28 49  1  0  0  0  0
 28 50  1  0  0  0  0
 29 30  1  0  0  0  0
 29 51  1  0  0  0  0
 29 52  1  0  0  0  0
 30 31  1  0  0  0  0
 31 32  1  0  0  0  0
 31 53  1  0  0  0  0
 31 54  1  0  0  0  0
 32 33  1  0  0  0  0
 32 55  1  0  0  0  0
 32 56  1  0  0  0  0
 33 34  1  0  0  0  0
 33 35  1  0  0  0  0
 33 57  1  1  0  0  0
 35 30  1  0  0  0  0
 35 58  1  0  0  0  0
 35 59  1  0  0  0  0
M  END
>  <minimizedAffinity>
-8.60470

$$$$
CHEMBL184679
 OpenBabel01042214213D

 59 63  0  0  0  0  0  0  0  0999 V2000
   38.1153    0.0159   17.5470 C   0  0  1  0  0  0  0  0  0  0  0  0
   38.7480    1.5950   16.8919 S   0  0  0  0  0  0  0  0  0  0  0  0
   37.2111    2.0663   16.0965 C   0  0  0  0  0  0  0  0  0  0  0  0
   37.2586    2.7157   14.8576 C   0  0  0  0  0  0  0  0  0  0  0  0
   36.0781    3.1638   14.2505 C   0  0  0  0  0  0  0  0  0  0  0  0
   36.1185    3.8301   13.0266 O   0  0  0  0  0  0  0  0  0  0  0  0
   34.8499    2.9599   14.8854 C   0  0  0  0  0  0  0  0  0  0  0  0
   34.7966    2.2881   16.1092 C   0  0  0  0  0  0  0  0  0  0  0  0
   35.9694    1.8150   16.7092 C   0  0  0  0  0  0  0  0  0  0  0  0
   35.8569    1.0297   17.8649 O   0  0  0  0  0  0  0  0  0  0  0  0
   36.9230    0.3096   18.5000 C   0  0  1  0  0  0  0  0  0  0  0  0
   36.9942    3.9936   12.5398 H   0  0  0  0  0  0  0  0  0  0  0  0
   37.6002   -3.7483   13.2460 O   0  0  0  0  0  0  0  0  0  0  0  0
   37.7082   -2.8446   14.3016 C   0  0  0  0  0  0  0  0  0  0  0  0
   38.8238   -2.8619   15.1463 C   0  0  0  0  0  0  0  0  0  0  0  0
   38.9230   -1.9445   16.1964 C   0  0  0  0  0  0  0  0  0  0  0  0
   37.9087   -0.9943   16.4238 C   0  0  0  0  0  0  0  0  0  0  0  0
   36.7923   -0.9831   15.5607 C   0  0  0  0  0  0  0  0  0  0  0  0
   36.6933   -1.9077   14.5155 C   0  0  0  0  0  0  0  0  0  0  0  0
   38.3347   -4.4155   13.0383 H   0  0  0  0  0  0  0  0  0  0  0  0
   36.4033   -0.9451   19.1838 C   0  0  0  0  0  0  0  0  0  0  0  0
   37.2753   -1.9430   19.6581 C   0  0  0  0  0  0  0  0  0  0  0  0
   36.7747   -3.1043   20.2534 C   0  0  0  0  0  0  0  0  0  0  0  0
   35.3880   -3.2904   20.3942 C   0  0  0  0  0  0  0  0  0  0  0  0
   34.5192   -2.2940   19.9364 C   0  0  0  0  0  0  0  0  0  0  0  0
   35.0175   -1.1403   19.3245 C   0  0  0  0  0  0  0  0  0  0  0  0
   34.8320   -4.4403   20.9795 O   0  0  0  0  0  0  0  0  0  0  0  0
   33.8729   -5.2988   20.3595 C   0  0  0  0  0  0  0  0  0  0  0  0
   34.5196   -6.0756   19.2066 C   0  0  0  0  0  0  0  0  0  0  0  0
   34.0041   -5.6074   17.9045 N   0  0  0  0  0  0  0  0  0  0  0  0
   34.9858   -4.8025   17.1493 C   0  0  0  0  0  0  0  0  0  0  0  0
   34.2384   -3.6275   16.5130 C   0  0  0  0  0  0  0  0  0  0  0  0
   32.7776   -3.8426   16.8632 C   0  0  1  0  0  0  0  0  0  0  0  0
   32.1311   -4.4831   15.8163 F   0  0  0  0  0  0  0  0  0  0  0  0
   32.8228   -4.7519   18.0751 C   0  0  0  0  0  0  0  0  0  0  0  0
   38.8278   -0.4877   18.1664 H   0  0  0  0  0  0  0  0  0  0  0  0
   38.1662    2.8650   14.3897 H   0  0  0  0  0  0  0  0  0  0  0  0
   33.9809    3.3061   14.4495 H   0  0  0  0  0  0  0  0  0  0  0  0
   33.8870    2.1398   16.5736 H   0  0  0  0  0  0  0  0  0  0  0  0
   37.3208    0.9508   19.2586 H   0  0  0  0  0  0  0  0  0  0  0  0
   39.5747   -3.5532   14.9937 H   0  0  0  0  0  0  0  0  0  0  0  0
   39.7503   -1.9638   16.8130 H   0  0  0  0  0  0  0  0  0  0  0  0
   36.0431   -0.2875   15.7016 H   0  0  0  0  0  0  0  0  0  0  0  0
   35.8660   -1.8979   13.8987 H   0  0  0  0  0  0  0  0  0  0  0  0
   38.2952   -1.8158   19.5653 H   0  0  0  0  0  0  0  0  0  0  0  0
   37.4266   -3.8294   20.5916 H   0  0  0  0  0  0  0  0  0  0  0  0
   33.5005   -2.4119   20.0516 H   0  0  0  0  0  0  0  0  0  0  0  0
   34.3623   -0.4248   18.9726 H   0  0  0  0  0  0  0  0  0  0  0  0
   33.0656   -4.7089   19.9784 H   0  0  0  0  0  0  0  0  0  0  0  0
   33.5080   -5.9945   21.0860 H   0  0  0  0  0  0  0  0  0  0  0  0
   34.2986   -7.1166   19.3176 H   0  0  0  0  0  0  0  0  0  0  0  0
   35.5770   -5.9142   19.2349 H   0  0  0  0  0  0  0  0  0  0  0  0
   35.4381   -5.4017   16.3869 H   0  0  0  0  0  0  0  0  0  0  0  0
   35.7565   -4.4462   17.8005 H   0  0  0  0  0  0  0  0  0  0  0  0
   34.3731   -3.6287   15.4515 H   0  0  0  0  0  0  0  0  0  0  0  0
   34.5990   -2.6857   16.8706 H   0  0  0  0  0  0  0  0  0  0  0  0
   32.2542   -2.9279   17.0481 H   0  0  0  0  0  0  0  0  0  0  0  0
   31.9365   -5.3494   18.1233 H   0  0  0  0  0  0  0  0  0  0  0  0
   32.8788   -4.1879   18.9827 H   0  0  0  0  0  0  0  0  0  0  0  0
  1  2  1  0  0  0  0
  1 36  1  1  0  0  0
  2  3  1  0  0  0  0
  3  4  2  0  0  0  0
  4  5  1  0  0  0  0
  4 37  1  0  0  0  0
  5  6  1  0  0  0  0
  5  7  2  0  0  0  0
  6 12  1  0  0  0  0
  7  8  1  0  0  0  0
  7 38  1  0  0  0  0
  8  9  2  0  0  0  0
  8 39  1  0  0  0  0
  9 10  1  0  0  0  0
  9  3  1  0  0  0  0
 10 11  1  0  0  0  0
 11 21  1  0  0  0  0
 11  1  1  0  0  0  0
 11 40  1  1  0  0  0
 13 14  1  0  0  0  0
 13 20  1  0  0  0  0
 14 15  2  0  0  0  0
 15 16  1  0  0  0  0
 15 41  1  0  0  0  0
 16 17  2  0  0  0  0
 16 42  1  0  0  0  0
 17  1  1  0  0  0  0
 17 18  1  0  0  0  0
 18 19  2  0  0  0  0
 18 43  1  0  0  0  0
 19 14  1  0  0  0  0
 19 44  1  0  0  0  0
 21 22  2  0  0  0  0
 22 23  1  0  0  0  0
 22 45  1  0  0  0  0
 23 24  2  0  0  0  0
 23 46  1  0  0  0  0
 24 27  1  0  0  0  0
 24 25  1  0  0  0  0
 25 26  2  0  0  0  0
 25 47  1  0  0  0  0
 26 21  1  0  0  0  0
 26 48  1  0  0  0  0
 27 28  1  0  0  0  0
 28 29  1  0  0  0  0
 28 49  1  0  0  0  0
 28 50  1  0  0  0  0
 29 30  1  0  0  0  0
 29 51  1  0  0  0  0
 29 52  1  0  0  0  0
 30 31  1  0  0  0  0
 31 32  1  0  0  0  0
 31 53  1  0  0  0  0
 31 54  1  0  0  0  0
 32 33  1  0  0  0  0
 32 55  1  0  0  0  0
 32 56  1  0  0  0  0
 33 34  1  0  0  0  0
 33 35  1  0  0  0  0
 33 57  1  1  0  0  0
 35 30  1  0  0  0  0
 35 58  1  0  0  0  0
 35 59  1  0  0  0  0
M  END
>  <minimizedAffinity>
-8.61016

$$$$
CHEMBL184679
 OpenBabel01042214213D

 59 63  0  0  0  0  0  0  0  0999 V2000
   33.1949   -2.7203   18.3767 C   0  0  1  0  0  0  0  0  0  0  0  0
   32.8930   -3.0465   16.6089 S   0  0  0  0  0  0  0  0  0  0  0  0
   34.4616   -3.8692   16.3270 C   0  0  0  0  0  0  0  0  0  0  0  0
   35.1324   -3.6569   15.1173 C   0  0  0  0  0  0  0  0  0  0  0  0
   36.3200   -4.3463   14.8389 C   0  0  0  0  0  0  0  0  0  0  0  0
   36.9832   -4.1564   13.6275 O   0  0  0  0  0  0  0  0  0  0  0  0
   36.8353   -5.2478   15.7742 C   0  0  0  0  0  0  0  0  0  0  0  0
   36.1825   -5.4418   16.9941 C   0  0  0  0  0  0  0  0  0  0  0  0
   35.0095   -4.7374   17.2896 C   0  0  0  0  0  0  0  0  0  0  0  0
   34.4644   -4.8600   18.5752 O   0  0  0  0  0  0  0  0  0  0  0  0
   33.3888   -4.0763   19.1114 C   0  0  1  0  0  0  0  0  0  0  0  0
   36.6352   -3.5086   12.9275 H   0  0  0  0  0  0  0  0  0  0  0  0
   37.2371    1.3332   18.7795 O   0  0  0  0  0  0  0  0  0  0  0  0
   36.2465    0.3559   18.7015 C   0  0  0  0  0  0  0  0  0  0  0  0
   35.2357    0.4377   17.7372 C   0  0  0  0  0  0  0  0  0  0  0  0
   34.2529   -0.5537   17.6651 C   0  0  0  0  0  0  0  0  0  0  0  0
   34.2601   -1.6442   18.5564 C   0  0  0  0  0  0  0  0  0  0  0  0
   35.2886   -1.7184   19.5196 C   0  0  0  0  0  0  0  0  0  0  0  0
   36.2661   -0.7203   19.5933 C   0  0  0  0  0  0  0  0  0  0  0  0
   37.2759    2.1063   18.1248 H   0  0  0  0  0  0  0  0  0  0  0  0
   33.5334   -3.9066   20.6154 C   0  0  0  0  0  0  0  0  0  0  0  0
   34.6929   -4.3205   21.2974 C   0  0  0  0  0  0  0  0  0  0  0  0
   34.7912   -4.1860   22.6852 C   0  0  0  0  0  0  0  0  0  0  0  0
   33.7323   -3.6267   23.4223 C   0  0  0  0  0  0  0  0  0  0  0  0
   32.5841   -3.2015   22.7455 C   0  0  0  0  0  0  0  0  0  0  0  0
   32.4769   -3.3519   21.3600 C   0  0  0  0  0  0  0  0  0  0  0  0
   33.7767   -3.4737   24.8182 O   0  0  0  0  0  0  0  0  0  0  0  0
   32.6450   -3.2375   25.6575 C   0  0  0  0  0  0  0  0  0  0  0  0
   32.7106   -1.8275   26.2563 C   0  0  0  0  0  0  0  0  0  0  0  0
   31.3539   -1.2917   26.4861 N   0  0  0  0  0  0  0  0  0  0  0  0
   30.9989   -1.2106   27.9176 C   0  0  0  0  0  0  0  0  0  0  0  0
   29.5443   -1.6650   28.0663 C   0  0  0  0  0  0  0  0  0  0  0  0
   29.0574   -1.9253   26.6528 C   0  0  1  0  0  0  0  0  0  0  0  0
   28.3870   -0.8100   26.1722 F   0  0  0  0  0  0  0  0  0  0  0  0
   30.3321   -2.1416   25.8617 C   0  0  0  0  0  0  0  0  0  0  0  0
   32.3513   -2.2770   18.8632 H   0  0  0  0  0  0  0  0  0  0  0  0
   34.7511   -2.9903   14.4279 H   0  0  0  0  0  0  0  0  0  0  0  0
   37.6995   -5.7711   15.5634 H   0  0  0  0  0  0  0  0  0  0  0  0
   36.5674   -6.1084   17.6815 H   0  0  0  0  0  0  0  0  0  0  0  0
   32.4874   -4.6244   18.9326 H   0  0  0  0  0  0  0  0  0  0  0  0
   35.2158    1.2315   17.0780 H   0  0  0  0  0  0  0  0  0  0  0  0
   33.5124   -0.4857   16.9495 H   0  0  0  0  0  0  0  0  0  0  0  0
   35.3200   -2.5151   20.1748 H   0  0  0  0  0  0  0  0  0  0  0  0
   37.0060   -0.7789   20.3103 H   0  0  0  0  0  0  0  0  0  0  0  0
   35.4790   -4.7277   20.7671 H   0  0  0  0  0  0  0  0  0  0  0  0
   35.6458   -4.4990   23.1717 H   0  0  0  0  0  0  0  0  0  0  0  0
   31.8086   -2.7726   23.2744 H   0  0  0  0  0  0  0  0  0  0  0  0
   31.6143   -3.0531   20.8787 H   0  0  0  0  0  0  0  0  0  0  0  0
   32.6367   -3.9571   26.4494 H   0  0  0  0  0  0  0  0  0  0  0  0
   31.7536   -3.3256   25.0722 H   0  0  0  0  0  0  0  0  0  0  0  0
   33.2323   -1.1831   25.5800 H   0  0  0  0  0  0  0  0  0  0  0  0
   33.2233   -1.8767   27.1942 H   0  0  0  0  0  0  0  0  0  0  0  0
   31.1022   -0.2027   28.2616 H   0  0  0  0  0  0  0  0  0  0  0  0
   31.6461   -1.8337   28.4988 H   0  0  0  0  0  0  0  0  0  0  0  0
   28.9581   -0.8988   28.5291 H   0  0  0  0  0  0  0  0  0  0  0  0
   29.4602   -2.5354   28.6829 H   0  0  0  0  0  0  0  0  0  0  0  0
   28.3827   -2.7534   26.5901 H   0  0  0  0  0  0  0  0  0  0  0  0
   30.1871   -1.8571   24.8405 H   0  0  0  0  0  0  0  0  0  0  0  0
   30.6246   -3.1708   25.8693 H   0  0  0  0  0  0  0  0  0  0  0  0
  1  2  1  0  0  0  0
  1 36  1  1  0  0  0
  2  3  1  0  0  0  0
  3  4  2  0  0  0  0
  4  5  1  0  0  0  0
  4 37  1  0  0  0  0
  5  6  1  0  0  0  0
  5  7  2  0  0  0  0
  6 12  1  0  0  0  0
  7  8  1  0  0  0  0
  7 38  1  0  0  0  0
  8  9  2  0  0  0  0
  8 39  1  0  0  0  0
  9 10  1  0  0  0  0
  9  3  1  0  0  0  0
 10 11  1  0  0  0  0
 11 21  1  0  0  0  0
 11  1  1  0  0  0  0
 11 40  1  6  0  0  0
 13 14  1  0  0  0  0
 13 20  1  0  0  0  0
 14 15  2  0  0  0  0
 15 16  1  0  0  0  0
 15 41  1  0  0  0  0
 16 17  2  0  0  0  0
 16 42  1  0  0  0  0
 17  1  1  0  0  0  0
 17 18  1  0  0  0  0
 18 19  2  0  0  0  0
 18 43  1  0  0  0  0
 19 14  1  0  0  0  0
 19 44  1  0  0  0  0
 21 22  2  0  0  0  0
 22 23  1  0  0  0  0
 22 45  1  0  0  0  0
 23 24  2  0  0  0  0
 23 46  1  0  0  0  0
 24 27  1  0  0  0  0
 24 25  1  0  0  0  0
 25 26  2  0  0  0  0
 25 47  1  0  0  0  0
 26 21  1  0  0  0  0
 26 48  1  0  0  0  0
 27 28  1  0  0  0  0
 28 29  1  0  0  0  0
 28 49  1  0  0  0  0
 28 50  1  0  0  0  0
 29 30  1  0  0  0  0
 29 51  1  0  0  0  0
 29 52  1  0  0  0  0
 30 31  1  0  0  0  0
 31 32  1  0  0  0  0
 31 53  1  0  0  0  0
 31 54  1  0  0  0  0
 32 33  1  0  0  0  0
 32 55  1  0  0  0  0
 32 56  1  0  0  0  0
 33 34  1  0  0  0  0
 33 35  1  0  0  0  0
 33 57  1  6  0  0  0
 35 30  1  0  0  0  0
 35 58  1  0  0  0  0
 35 59  1  0  0  0  0
M  END
>  <minimizedAffinity>
-8.64619

$$$$
CHEMBL304552
 OpenBabel01042214213D

 62 66  0  0  0  0  0  0  0  0999 V2000
   36.7930    0.2604   18.8370 C   0  0  1  0  0  0  0  0  0  0  0  0
   35.3898   -0.6563   18.1140 S   0  0  0  0  0  0  0  0  0  0  0  0
   35.3201   -1.8403   19.4582 C   0  0  0  0  0  0  0  0  0  0  0  0
   34.0723   -2.2958   19.8973 C   0  0  0  0  0  0  0  0  0  0  0  0
   33.9894   -3.3038   20.8678 C   0  0  0  0  0  0  0  0  0  0  0  0
   32.7496   -3.7816   21.2908 O   0  0  0  0  0  0  0  0  0  0  0  0
   35.1612   -3.8468   21.4056 C   0  0  0  0  0  0  0  0  0  0  0  0
   36.4100   -3.3733   20.9915 C   0  0  0  0  0  0  0  0  0  0  0  0
   36.4988   -2.3522   20.0374 C   0  0  0  0  0  0  0  0  0  0  0  0
   37.7678   -1.8392   19.7269 O   0  0  0  0  0  0  0  0  0  0  0  0
   38.0347   -0.6595   18.9569 C   0  0  1  0  0  0  0  0  0  0  0  0
   31.8851   -3.4438   20.8829 H   0  0  0  0  0  0  0  0  0  0  0  0
   37.8181    5.0873   15.9264 O   0  0  0  0  0  0  0  0  0  0  0  0
   37.5689    3.9125   16.6304 C   0  0  0  0  0  0  0  0  0  0  0  0
   36.6367    2.9787   16.1559 C   0  0  0  0  0  0  0  0  0  0  0  0
   36.3963    1.8013   16.8710 C   0  0  0  0  0  0  0  0  0  0  0  0
   37.0950    1.5328   18.0636 C   0  0  0  0  0  0  0  0  0  0  0  0
   38.0134    2.4903   18.5423 C   0  0  0  0  0  0  0  0  0  0  0  0
   38.2526    3.6661   17.8243 C   0  0  0  0  0  0  0  0  0  0  0  0
   37.3337    5.2962   15.0648 H   0  0  0  0  0  0  0  0  0  0  0  0
   38.6443   -1.0412   17.6203 C   0  0  0  0  0  0  0  0  0  0  0  0
   38.3246   -2.2790   17.0340 C   0  0  0  0  0  0  0  0  0  0  0  0
   38.8977   -2.6582   15.8178 C   0  0  0  0  0  0  0  0  0  0  0  0
   39.8010   -1.7989   15.1586 C   0  0  0  0  0  0  0  0  0  0  0  0
   40.1212   -0.5677   15.7438 C   0  0  0  0  0  0  0  0  0  0  0  0
   39.5474   -0.1873   16.9598 C   0  0  0  0  0  0  0  0  0  0  0  0
   40.4073   -2.1253   13.9334 O   0  0  0  0  0  0  0  0  0  0  0  0
   40.6623   -1.2135   12.8641 C   0  0  0  0  0  0  0  0  0  0  0  0
   39.4827   -1.1776   11.8877 C   0  0  0  0  0  0  0  0  0  0  0  0
   38.6773    0.0461   12.1043 N   0  0  0  0  0  0  0  0  0  0  0  0
   37.4809   -0.2423   12.9227 C   0  0  0  0  0  0  0  0  0  0  0  0
   36.5697    0.9952   13.0535 C   0  0  0  0  0  0  0  0  0  0  0  0
   37.2229    2.2677   12.5044 C   0  0  0  0  0  0  0  0  0  0  0  0
   38.6699    2.3910   12.9917 C   0  0  0  0  0  0  0  0  0  0  0  0
   39.4886    1.1050   12.7416 C   0  0  0  0  0  0  0  0  0  0  0  0
   36.5174    0.5683   19.8240 H   0  0  0  0  0  0  0  0  0  0  0  0
   33.2093   -1.8880   19.5050 H   0  0  0  0  0  0  0  0  0  0  0  0
   35.1038   -4.5989   22.1099 H   0  0  0  0  0  0  0  0  0  0  0  0
   37.2709   -3.7785   21.3912 H   0  0  0  0  0  0  0  0  0  0  0  0
   38.7577   -0.0660   19.4765 H   0  0  0  0  0  0  0  0  0  0  0  0
   36.1270    3.1607   15.2772 H   0  0  0  0  0  0  0  0  0  0  0  0
   35.7009    1.1235   16.5217 H   0  0  0  0  0  0  0  0  0  0  0  0
   38.5128    2.3217   19.4295 H   0  0  0  0  0  0  0  0  0  0  0  0
   38.9361    4.3541   18.1770 H   0  0  0  0  0  0  0  0  0  0  0  0
   37.6609   -2.9126   17.5064 H   0  0  0  0  0  0  0  0  0  0  0  0
   38.6590   -3.5711   15.3999 H   0  0  0  0  0  0  0  0  0  0  0  0
   40.7871    0.0645   15.2727 H   0  0  0  0  0  0  0  0  0  0  0  0
   39.7874    0.7259   17.3764 H   0  0  0  0  0  0  0  0  0  0  0  0
   41.5421   -1.5242   12.3403 H   0  0  0  0  0  0  0  0  0  0  0  0
   40.7991   -0.2343   13.2733 H   0  0  0  0  0  0  0  0  0  0  0  0
   38.8671   -2.0385   12.0452 H   0  0  0  0  0  0  0  0  0  0  0  0
   39.8584   -1.1758   10.8858 H   0  0  0  0  0  0  0  0  0  0  0  0
   37.7938   -0.5477   13.8993 H   0  0  0  0  0  0  0  0  0  0  0  0
   36.9242   -1.0178   12.4394 H   0  0  0  0  0  0  0  0  0  0  0  0
   36.3423    1.1457   14.0882 H   0  0  0  0  0  0  0  0  0  0  0  0
   35.6865    0.8099   12.4786 H   0  0  0  0  0  0  0  0  0  0  0  0
   36.6669    3.1191   12.8375 H   0  0  0  0  0  0  0  0  0  0  0  0
   37.2243    2.2183   11.4355 H   0  0  0  0  0  0  0  0  0  0  0  0
   38.6623    2.5944   14.0422 H   0  0  0  0  0  0  0  0  0  0  0  0
   39.1324    3.1837   12.4415 H   0  0  0  0  0  0  0  0  0  0  0  0
   39.8558    0.7417   13.6787 H   0  0  0  0  0  0  0  0  0  0  0  0
   40.2923    1.3490   12.0788 H   0  0  0  0  0  0  0  0  0  0  0  0
  1  2  1  0  0  0  0
  1 36  1  1  0  0  0
  2  3  1  0  0  0  0
  3  4  2  0  0  0  0
  4  5  1  0  0  0  0
  4 37  1  0  0  0  0
  5  6  1  0  0  0  0
  5  7  2  0  0  0  0
  6 12  1  0  0  0  0
  7  8  1  0  0  0  0
  7 38  1  0  0  0  0
  8  9  2  0  0  0  0
  8 39  1  0  0  0  0
  9 10  1  0  0  0  0
  9  3  1  0  0  0  0
 10 11  1  0  0  0  0
 11 21  1  0  0  0  0
 11  1  1  0  0  0  0
 11 40  1  1  0  0  0
 13 14  1  0  0  0  0
 13 20  1  0  0  0  0
 14 15  2  0  0  0  0
 15 16  1  0  0  0  0
 15 41  1  0  0  0  0
 16 17  2  0  0  0  0
 16 42  1  0  0  0  0
 17  1  1  0  0  0  0
 17 18  1  0  0  0  0
 18 19  2  0  0  0  0
 18 43  1  0  0  0  0
 19 14  1  0  0  0  0
 19 44  1  0  0  0  0
 21 22  2  0  0  0  0
 22 23  1  0  0  0  0
 22 45  1  0  0  0  0
 23 24  2  0  0  0  0
 23 46  1  0  0  0  0
 24 27  1  0  0  0  0
 24 25  1  0  0  0  0
 25 26  2  0  0  0  0
 25 47  1  0  0  0  0
 26 21  1  0  0  0  0
 26 48  1  0  0  0  0
 27 28  1  0  0  0  0
 28 29  1  0  0  0  0
 28 49  1  0  0  0  0
 28 50  1  0  0  0  0
 29 30  1  0  0  0  0
 29 51  1  0  0  0  0
 29 52  1  0  0  0  0
 30 31  1  0  0  0  0
 31 32  1  0  0  0  0
 31 53  1  0  0  0  0
 31 54  1  0  0  0  0
 32 33  1  0  0  0  0
 32 55  1  0  0  0  0
 32 56  1  0  0  0  0
 33 34  1  0  0  0  0
 33 57  1  0  0  0  0
 33 58  1  0  0  0  0
 34 35  1  0  0  0  0
 34 59  1  0  0  0  0
 34 60  1  0  0  0  0
 35 30  1  0  0  0  0
 35 61  1  0  0  0  0
 35 62  1  0  0  0  0
M  END
>  <minimizedAffinity>
-8.65523

$$$$
CHEMBL304552
 OpenBabel01042214213D

 62 66  0  0  0  0  0  0  0  0999 V2000
   35.0567   -2.7057   17.1848 C   0  0  1  0  0  0  0  0  0  0  0  0
   34.7117   -0.9754   17.6526 S   0  0  0  0  0  0  0  0  0  0  0  0
   36.4145   -0.4566   17.4408 C   0  0  0  0  0  0  0  0  0  0  0  0
   36.6765    0.8098   16.9069 C   0  0  0  0  0  0  0  0  0  0  0  0
   37.9922    1.2876   16.8341 C   0  0  0  0  0  0  0  0  0  0  0  0
   38.2587    2.5593   16.3279 O   0  0  0  0  0  0  0  0  0  0  0  0
   39.0466    0.4879   17.2879 C   0  0  0  0  0  0  0  0  0  0  0  0
   38.7919   -0.7904   17.7943 C   0  0  0  0  0  0  0  0  0  0  0  0
   37.4817   -1.2811   17.8505 C   0  0  0  0  0  0  0  0  0  0  0  0
   37.2838   -2.6054   18.2712 O   0  0  0  0  0  0  0  0  0  0  0  0
   36.0587   -3.3447   18.1799 C   0  0  1  0  0  0  0  0  0  0  0  0
   37.5117    3.1811   16.0391 H   0  0  0  0  0  0  0  0  0  0  0  0
   30.2913   -5.8578   16.7635 O   0  0  0  0  0  0  0  0  0  0  0  0
   31.4505   -5.0934   16.8626 C   0  0  0  0  0  0  0  0  0  0  0  0
   32.6988   -5.6419   16.5358 C   0  0  0  0  0  0  0  0  0  0  0  0
   33.8560   -4.8635   16.6376 C   0  0  0  0  0  0  0  0  0  0  0  0
   33.7810   -3.5205   17.0537 C   0  0  0  0  0  0  0  0  0  0  0  0
   32.5223   -2.9871   17.4014 C   0  0  0  0  0  0  0  0  0  0  0  0
   31.3668   -3.7676   17.2972 C   0  0  0  0  0  0  0  0  0  0  0  0
   30.3215   -6.8208   16.4598 H   0  0  0  0  0  0  0  0  0  0  0  0
   35.4846   -3.5679   19.5671 C   0  0  0  0  0  0  0  0  0  0  0  0
   35.5476   -4.8452   20.1527 C   0  0  0  0  0  0  0  0  0  0  0  0
   34.9999   -5.0748   21.4171 C   0  0  0  0  0  0  0  0  0  0  0  0
   34.3816   -4.0240   22.1259 C   0  0  0  0  0  0  0  0  0  0  0  0
   34.3167   -2.7531   21.5417 C   0  0  0  0  0  0  0  0  0  0  0  0
   34.8654   -2.5224   20.2774 C   0  0  0  0  0  0  0  0  0  0  0  0
   33.8149   -4.1945   23.4007 O   0  0  0  0  0  0  0  0  0  0  0  0
   33.5544   -3.1506   24.3400 C   0  0  0  0  0  0  0  0  0  0  0  0
   32.1345   -3.2678   24.9024 C   0  0  0  0  0  0  0  0  0  0  0  0
   31.9703   -2.3676   26.0668 N   0  0  0  0  0  0  0  0  0  0  0  0
   32.4856   -1.0145   25.7701 C   0  0  0  0  0  0  0  0  0  0  0  0
   32.4335   -0.1014   27.0119 C   0  0  0  0  0  0  0  0  0  0  0  0
   31.6632   -0.7337   28.1756 C   0  0  0  0  0  0  0  0  0  0  0  0
   30.3493   -1.3515   27.6873 C   0  0  0  0  0  0  0  0  0  0  0  0
   30.5530   -2.2947   26.4808 C   0  0  0  0  0  0  0  0  0  0  0  0
   35.5124   -2.7050   16.2167 H   0  0  0  0  0  0  0  0  0  0  0  0
   35.8978    1.3946   16.5653 H   0  0  0  0  0  0  0  0  0  0  0  0
   40.0150    0.8424   17.2488 H   0  0  0  0  0  0  0  0  0  0  0  0
   39.5738   -1.3753   18.1284 H   0  0  0  0  0  0  0  0  0  0  0  0
   36.2689   -4.3086   17.7656 H   0  0  0  0  0  0  0  0  0  0  0  0
   32.7637   -6.6221   16.2195 H   0  0  0  0  0  0  0  0  0  0  0  0
   34.7727   -5.2769   16.4058 H   0  0  0  0  0  0  0  0  0  0  0  0
   32.4537   -2.0130   17.7354 H   0  0  0  0  0  0  0  0  0  0  0  0
   30.4493   -3.3635   17.5420 H   0  0  0  0  0  0  0  0  0  0  0  0
   36.0023   -5.6194   19.6439 H   0  0  0  0  0  0  0  0  0  0  0  0
   35.0479   -6.0175   21.8343 H   0  0  0  0  0  0  0  0  0  0  0  0
   33.8595   -1.9797   22.0495 H   0  0  0  0  0  0  0  0  0  0  0  0
   34.8163   -1.5791   19.8617 H   0  0  0  0  0  0  0  0  0  0  0  0
   33.6615   -2.2045   23.8518 H   0  0  0  0  0  0  0  0  0  0  0  0
   34.2514   -3.2337   25.1476 H   0  0  0  0  0  0  0  0  0  0  0  0
   31.9578   -4.2777   25.2086 H   0  0  0  0  0  0  0  0  0  0  0  0
   31.4339   -2.9886   24.1434 H   0  0  0  0  0  0  0  0  0  0  0  0
   31.8913   -0.5792   24.9940 H   0  0  0  0  0  0  0  0  0  0  0  0
   33.5070   -1.1053   25.4645 H   0  0  0  0  0  0  0  0  0  0  0  0
   31.9546    0.8167   26.7424 H   0  0  0  0  0  0  0  0  0  0  0  0
   33.4396    0.0596   27.3385 H   0  0  0  0  0  0  0  0  0  0  0  0
   31.4470    0.0200   28.9037 H   0  0  0  0  0  0  0  0  0  0  0  0
   32.2659   -1.5060   28.6061 H   0  0  0  0  0  0  0  0  0  0  0  0
   29.6856   -0.5634   27.3988 H   0  0  0  0  0  0  0  0  0  0  0  0
   29.9443   -1.9320   28.4898 H   0  0  0  0  0  0  0  0  0  0  0  0
   29.9712   -1.9340   25.6584 H   0  0  0  0  0  0  0  0  0  0  0  0
   30.2436   -3.2764   26.7733 H   0  0  0  0  0  0  0  0  0  0  0  0
  1  2  1  0  0  0  0
  1 36  1  6  0  0  0
  2  3  1  0  0  0  0
  3  4  2  0  0  0  0
  4  5  1  0  0  0  0
  4 37  1  0  0  0  0
  5  6  1  0  0  0  0
  5  7  2  0  0  0  0
  6 12  1  0  0  0  0
  7  8  1  0  0  0  0
  7 38  1  0  0  0  0
  8  9  2  0  0  0  0
  8 39  1  0  0  0  0
  9 10  1  0  0  0  0
  9  3  1  0  0  0  0
 10 11  1  0  0  0  0
 11 21  1  0  0  0  0
 11  1  1  0  0  0  0
 11 40  1  6  0  0  0
 13 14  1  0  0  0  0
 13 20  1  0  0  0  0
 14 15  2  0  0  0  0
 15 16  1  0  0  0  0
 15 41  1  0  0  0  0
 16 17  2  0  0  0  0
 16 42  1  0  0  0  0
 17  1  1  0  0  0  0
 17 18  1  0  0  0  0
 18 19  2  0  0  0  0
 18 43  1  0  0  0  0
 19 14  1  0  0  0  0
 19 44  1  0  0  0  0
 21 22  2  0  0  0  0
 22 23  1  0  0  0  0
 22 45  1  0  0  0  0
 23 24  2  0  0  0  0
 23 46  1  0  0  0  0
 24 27  1  0  0  0  0
 24 25  1  0  0  0  0
 25 26  2  0  0  0  0
 25 47  1  0  0  0  0
 26 21  1  0  0  0  0
 26 48  1  0  0  0  0
 27 28  1  0  0  0  0
 28 29  1  0  0  0  0
 28 49  1  0  0  0  0
 28 50  1  0  0  0  0
 29 30  1  0  0  0  0
 29 51  1  0  0  0  0
 29 52  1  0  0  0  0
 30 31  1  0  0  0  0
 31 32  1  0  0  0  0
 31 53  1  0  0  0  0
 31 54  1  0  0  0  0
 32 33  1  0  0  0  0
 32 55  1  0  0  0  0
 32 56  1  0  0  0  0
 33 34  1  0  0  0  0
 33 57  1  0  0  0  0
 33 58  1  0  0  0  0
 34 35  1  0  0  0  0
 34 59  1  0  0  0  0
 34 60  1  0  0  0  0
 35 30  1  0  0  0  0
 35 61  1  0  0  0  0
 35 62  1  0  0  0  0
M  END
>  <minimizedAffinity>
-8.69279

$$$$
CHEMBL304552
 OpenBabel01042214213D

 62 66  0  0  0  0  0  0  0  0999 V2000
   38.2986    1.0704   16.1044 C   0  0  1  0  0  0  0  0  0  0  0  0
   36.9196    2.2031   15.7065 S   0  0  0  0  0  0  0  0  0  0  0  0
   37.6960    3.6056   16.5036 C   0  0  0  0  0  0  0  0  0  0  0  0
   37.5865    4.8761   15.9211 C   0  0  0  0  0  0  0  0  0  0  0  0
   38.0852    6.0030   16.5906 C   0  0  0  0  0  0  0  0  0  0  0  0
   37.9531    7.2771   16.0418 O   0  0  0  0  0  0  0  0  0  0  0  0
   38.7083    5.8531   17.8323 C   0  0  0  0  0  0  0  0  0  0  0  0
   38.8298    4.5860   18.4093 C   0  0  0  0  0  0  0  0  0  0  0  0
   38.3446    3.4540   17.7424 C   0  0  0  0  0  0  0  0  0  0  0  0
   38.5469    2.1925   18.3227 O   0  0  0  0  0  0  0  0  0  0  0  0
   38.4761    0.9304   17.6414 C   0  0  1  0  0  0  0  0  0  0  0  0
   37.4868    7.4314   15.1535 H   0  0  0  0  0  0  0  0  0  0  0  0
   37.7112   -3.9394   13.3856 O   0  0  0  0  0  0  0  0  0  0  0  0
   37.8507   -2.7233   14.0496 C   0  0  0  0  0  0  0  0  0  0  0  0
   39.0130   -2.4703   14.7842 C   0  0  0  0  0  0  0  0  0  0  0  0
   39.1657   -1.2580   15.4621 C   0  0  0  0  0  0  0  0  0  0  0  0
   38.1402   -0.2848   15.4340 C   0  0  0  0  0  0  0  0  0  0  0  0
   36.9846   -0.5447   14.6773 C   0  0  0  0  0  0  0  0  0  0  0  0
   36.8431   -1.7502   13.9859 C   0  0  0  0  0  0  0  0  0  0  0  0
   36.8854   -4.1465   12.8332 H   0  0  0  0  0  0  0  0  0  0  0  0
   37.4220    0.0569   18.2927 C   0  0  0  0  0  0  0  0  0  0  0  0
   36.0875    0.4929   18.3444 C   0  0  0  0  0  0  0  0  0  0  0  0
   35.1100   -0.2901   18.9595 C   0  0  0  0  0  0  0  0  0  0  0  0
   35.4461   -1.5080   19.5556 C   0  0  0  0  0  0  0  0  0  0  0  0
   36.7824   -1.9490   19.5114 C   0  0  0  0  0  0  0  0  0  0  0  0
   37.7607   -1.1724   18.8838 C   0  0  0  0  0  0  0  0  0  0  0  0
   34.4272   -2.2415   20.1818 O   0  0  0  0  0  0  0  0  0  0  0  0
   34.2337   -3.6517   20.0576 C   0  0  0  0  0  0  0  0  0  0  0  0
   33.2253   -3.9713   18.9469 C   0  0  0  0  0  0  0  0  0  0  0  0
   33.7675   -5.0006   18.0302 N   0  0  0  0  0  0  0  0  0  0  0  0
   35.1081   -4.6633   17.5050 C   0  0  0  0  0  0  0  0  0  0  0  0
   35.0502   -3.5512   16.4494 C   0  0  0  0  0  0  0  0  0  0  0  0
   34.1199   -3.9547   15.3043 C   0  0  0  0  0  0  0  0  0  0  0  0
   32.7329   -4.3217   15.8355 C   0  0  0  0  0  0  0  0  0  0  0  0
   32.8287   -5.3808   16.9488 C   0  0  0  0  0  0  0  0  0  0  0  0
   39.1921    1.5051   15.7073 H   0  0  0  0  0  0  0  0  0  0  0  0
   37.1380    4.9823   14.9977 H   0  0  0  0  0  0  0  0  0  0  0  0
   39.0799    6.6804   18.3247 H   0  0  0  0  0  0  0  0  0  0  0  0
   39.2798    4.4838   19.3324 H   0  0  0  0  0  0  0  0  0  0  0  0
   39.4220    0.4416   17.7475 H   0  0  0  0  0  0  0  0  0  0  0  0
   39.7603   -3.1809   14.8259 H   0  0  0  0  0  0  0  0  0  0  0  0
   40.0341   -1.0714   15.9876 H   0  0  0  0  0  0  0  0  0  0  0  0
   36.2336    0.1617   14.6321 H   0  0  0  0  0  0  0  0  0  0  0  0
   35.9939   -1.9253   13.4262 H   0  0  0  0  0  0  0  0  0  0  0  0
   35.8282    1.3991   17.9243 H   0  0  0  0  0  0  0  0  0  0  0  0
   34.1301    0.0333   18.9742 H   0  0  0  0  0  0  0  0  0  0  0  0
   37.0408   -2.8495   19.9442 H   0  0  0  0  0  0  0  0  0  0  0  0
   38.7376   -1.5037   18.8543 H   0  0  0  0  0  0  0  0  0  0  0  0
   33.8665   -4.0378   20.9855 H   0  0  0  0  0  0  0  0  0  0  0  0
   35.1708   -4.1042   19.8085 H   0  0  0  0  0  0  0  0  0  0  0  0
   33.0191   -3.0799   18.3921 H   0  0  0  0  0  0  0  0  0  0  0  0
   32.3278   -4.3456   19.3934 H   0  0  0  0  0  0  0  0  0  0  0  0
   35.5353   -5.5383   17.0615 H   0  0  0  0  0  0  0  0  0  0  0  0
   35.7037   -4.3124   18.3217 H   0  0  0  0  0  0  0  0  0  0  0  0
   36.0330   -3.3803   16.0623 H   0  0  0  0  0  0  0  0  0  0  0  0
   34.6753   -2.6583   16.9045 H   0  0  0  0  0  0  0  0  0  0  0  0
   34.5356   -4.7992   14.7955 H   0  0  0  0  0  0  0  0  0  0  0  0
   34.0225   -3.1269   14.6334 H   0  0  0  0  0  0  0  0  0  0  0  0
   32.1428   -4.7112   15.0324 H   0  0  0  0  0  0  0  0  0  0  0  0
   32.2804   -3.4413   16.2417 H   0  0  0  0  0  0  0  0  0  0  0  0
   33.1616   -6.3011   16.5162 H   0  0  0  0  0  0  0  0  0  0  0  0
   31.8568   -5.4738   17.3866 H   0  0  0  0  0  0  0  0  0  0  0  0
  1  2  1  0  0  0  0
  1 36  1  6  0  0  0
  2  3  1  0  0  0  0
  3  4  2  0  0  0  0
  4  5  1  0  0  0  0
  4 37  1  0  0  0  0
  5  6  1  0  0  0  0
  5  7  2  0  0  0  0
  6 12  1  0  0  0  0
  7  8  1  0  0  0  0
  7 38  1  0  0  0  0
  8  9  2  0  0  0  0
  8 39  1  0  0  0  0
  9 10  1  0  0  0  0
  9  3  1  0  0  0  0
 10 11  1  0  0  0  0
 11 21  1  0  0  0  0
 11  1  1  0  0  0  0
 11 40  1  1  0  0  0
 13 14  1  0  0  0  0
 13 20  1  0  0  0  0
 14 15  2  0  0  0  0
 15 16  1  0  0  0  0
 15 41  1  0  0  0  0
 16 17  2  0  0  0  0
 16 42  1  0  0  0  0
 17  1  1  0  0  0  0
 17 18  1  0  0  0  0
 18 19  2  0  0  0  0
 18 43  1  0  0  0  0
 19 14  1  0  0  0  0
 19 44  1  0  0  0  0
 21 22  2  0  0  0  0
 22 23  1  0  0  0  0
 22 45  1  0  0  0  0
 23 24  2  0  0  0  0
 23 46  1  0  0  0  0
 24 27  1  0  0  0  0
 24 25  1  0  0  0  0
 25 26  2  0  0  0  0
 25 47  1  0  0  0  0
 26 21  1  0  0  0  0
 26 48  1  0  0  0  0
 27 28  1  0  0  0  0
 28 29  1  0  0  0  0
 28 49  1  0  0  0  0
 28 50  1  0  0  0  0
 29 30  1  0  0  0  0
 29 51  1  0  0  0  0
 29 52  1  0  0  0  0
 30 31  1  0  0  0  0
 31 32  1  0  0  0  0
 31 53  1  0  0  0  0
 31 54  1  0  0  0  0
 32 33  1  0  0  0  0
 32 55  1  0  0  0  0
 32 56  1  0  0  0  0
 33 34  1  0  0  0  0
 33 57  1  0  0  0  0
 33 58  1  0  0  0  0
 34 35  1  0  0  0  0
 34 59  1  0  0  0  0
 34 60  1  0  0  0  0
 35 30  1  0  0  0  0
 35 61  1  0  0  0  0
 35 62  1  0  0  0  0
M  END
>  <minimizedAffinity>
-8.69752

$$$$
CHEMBL185114
 OpenBabel01042214213D

 60 64  0  0  0  0  0  0  0  0999 V2000
   37.3841   -3.5163   18.4410 C   0  0  1  0  0  0  0  0  0  0  0  0
   38.5853   -2.8607   17.2388 S   0  0  0  0  0  0  0  0  0  0  0  0
   37.4607   -1.6636   16.5311 C   0  0  0  0  0  0  0  0  0  0  0  0
   37.4890   -1.4376   15.1505 C   0  0  0  0  0  0  0  0  0  0  0  0
   36.6744   -0.4566   14.5786 C   0  0  0  0  0  0  0  0  0  0  0  0
   36.7197   -0.2393   13.2052 O   0  0  0  0  0  0  0  0  0  0  0  0
   35.8287    0.3043   15.3952 C   0  0  0  0  0  0  0  0  0  0  0  0
   35.7799    0.0629   16.7705 C   0  0  0  0  0  0  0  0  0  0  0  0
   36.5731   -0.9379   17.3425 C   0  0  0  0  0  0  0  0  0  0  0  0
   36.3895   -1.2428   18.6973 O   0  0  0  0  0  0  0  0  0  0  0  0
   36.9312   -2.3749   19.3934 C   0  0  1  0  0  0  0  0  0  0  0  0
   36.1286    0.4519   12.7576 H   0  0  0  0  0  0  0  0  0  0  0  0
   33.4267   -6.7268   15.8132 O   0  0  0  0  0  0  0  0  0  0  0  0
   34.3843   -5.9399   16.4477 C   0  0  0  0  0  0  0  0  0  0  0  0
   35.6129   -6.4823   16.8251 C   0  0  0  0  0  0  0  0  0  0  0  0
   36.5625   -5.6855   17.4669 C   0  0  0  0  0  0  0  0  0  0  0  0
   36.2971   -4.3328   17.7509 C   0  0  0  0  0  0  0  0  0  0  0  0
   35.0609   -3.7937   17.3502 C   0  0  0  0  0  0  0  0  0  0  0  0
   34.1143   -4.5959   16.7097 C   0  0  0  0  0  0  0  0  0  0  0  0
   33.5939   -7.7031   15.6026 H   0  0  0  0  0  0  0  0  0  0  0  0
   35.9665   -2.8685   20.4622 C   0  0  0  0  0  0  0  0  0  0  0  0
   36.3533   -3.8287   21.4191 C   0  0  0  0  0  0  0  0  0  0  0  0
   35.4571   -4.2610   22.3997 C   0  0  0  0  0  0  0  0  0  0  0  0
   34.1478   -3.7435   22.4426 C   0  0  0  0  0  0  0  0  0  0  0  0
   33.7576   -2.7980   21.4887 C   0  0  0  0  0  0  0  0  0  0  0  0
   34.6510   -2.3736   20.5025 C   0  0  0  0  0  0  0  0  0  0  0  0
   33.2085   -4.1330   23.4105 O   0  0  0  0  0  0  0  0  0  0  0  0
   32.3953   -3.2481   24.1804 C   0  0  0  0  0  0  0  0  0  0  0  0
   32.8247   -3.2727   25.6497 C   0  0  0  0  0  0  0  0  0  0  0  0
   33.3164   -1.9521   26.0863 N   0  0  0  0  0  0  0  0  0  0  0  0
   33.0441   -1.7186   27.5118 C   0  0  0  0  0  0  0  0  0  0  0  0
   32.6157   -0.2649   27.6800 C   0  0  0  0  0  0  0  0  0  0  0  0
   32.7193    0.3536   26.2993 C   0  0  1  0  0  0  0  0  0  0  0  0
   33.9448    1.0218   26.1565 O   0  0  0  0  0  0  0  0  0  0  0  0
   32.6804   -0.8418   25.3682 C   0  0  0  0  0  0  0  0  0  0  0  0
   33.8219    1.9211   26.5508 H   0  0  0  0  0  0  0  0  0  0  0  0
   37.8313   -4.2409   19.0890 H   0  0  0  0  0  0  0  0  0  0  0  0
   38.1148   -1.9984   14.5514 H   0  0  0  0  0  0  0  0  0  0  0  0
   35.2408    1.0443   14.9806 H   0  0  0  0  0  0  0  0  0  0  0  0
   35.1550    0.6262   17.3682 H   0  0  0  0  0  0  0  0  0  0  0  0
   37.8220   -2.0408   19.8831 H   0  0  0  0  0  0  0  0  0  0  0  0
   35.8201   -7.4742   16.6295 H   0  0  0  0  0  0  0  0  0  0  0  0
   37.4711   -6.0937   17.7367 H   0  0  0  0  0  0  0  0  0  0  0  0
   34.8524   -2.7992   17.5308 H   0  0  0  0  0  0  0  0  0  0  0  0
   33.2076   -4.1917   16.4277 H   0  0  0  0  0  0  0  0  0  0  0  0
   37.3093   -4.2167   21.3950 H   0  0  0  0  0  0  0  0  0  0  0  0
   35.7556   -4.9623   23.0955 H   0  0  0  0  0  0  0  0  0  0  0  0
   32.8014   -2.4106   21.5137 H   0  0  0  0  0  0  0  0  0  0  0  0
   34.3419   -1.6887   19.7951 H   0  0  0  0  0  0  0  0  0  0  0  0
   31.3728   -3.5546   24.1066 H   0  0  0  0  0  0  0  0  0  0  0  0
   32.5089   -2.2538   23.8018 H   0  0  0  0  0  0  0  0  0  0  0  0
   33.6058   -3.9936   25.7726 H   0  0  0  0  0  0  0  0  0  0  0  0
   31.9745   -3.5307   26.2459 H   0  0  0  0  0  0  0  0  0  0  0  0
   33.9281   -1.9049   28.0852 H   0  0  0  0  0  0  0  0  0  0  0  0
   32.2714   -2.3749   27.8541 H   0  0  0  0  0  0  0  0  0  0  0  0
   33.2655    0.2391   28.3646 H   0  0  0  0  0  0  0  0  0  0  0  0
   31.6242   -0.1877   28.0749 H   0  0  0  0  0  0  0  0  0  0  0  0
   31.9463    1.0679   26.1065 H   0  0  0  0  0  0  0  0  0  0  0  0
   33.2187   -0.6271   24.4687 H   0  0  0  0  0  0  0  0  0  0  0  0
   31.6753   -1.0848   25.0934 H   0  0  0  0  0  0  0  0  0  0  0  0
  1  2  1  0  0  0  0
  1 37  1  1  0  0  0
  2  3  1  0  0  0  0
  3  4  2  0  0  0  0
  4  5  1  0  0  0  0
  4 38  1  0  0  0  0
  5  6  1  0  0  0  0
  5  7  2  0  0  0  0
  6 12  1  0  0  0  0
  7  8  1  0  0  0  0
  7 39  1  0  0  0  0
  8  9  2  0  0  0  0
  8 40  1  0  0  0  0
  9 10  1  0  0  0  0
  9  3  1  0  0  0  0
 10 11  1  0  0  0  0
 11 21  1  0  0  0  0
 11  1  1  0  0  0  0
 11 41  1  1  0  0  0
 13 14  1  0  0  0  0
 13 20  1  0  0  0  0
 14 15  2  0  0  0  0
 15 16  1  0  0  0  0
 15 42  1  0  0  0  0
 16 17  2  0  0  0  0
 16 43  1  0  0  0  0
 17  1  1  0  0  0  0
 17 18  1  0  0  0  0
 18 19  2  0  0  0  0
 18 44  1  0  0  0  0
 19 14  1  0  0  0  0
 19 45  1  0  0  0  0
 21 22  2  0  0  0  0
 22 23  1  0  0  0  0
 22 46  1  0  0  0  0
 23 24  2  0  0  0  0
 23 47  1  0  0  0  0
 24 27  1  0  0  0  0
 24 25  1  0  0  0  0
 25 26  2  0  0  0  0
 25 48  1  0  0  0  0
 26 21  1  0  0  0  0
 26 49  1  0  0  0  0
 27 28  1  0  0  0  0
 28 29  1  0  0  0  0
 28 50  1  0  0  0  0
 28 51  1  0  0  0  0
 29 30  1  0  0  0  0
 29 52  1  0  0  0  0
 29 53  1  0  0  0  0
 30 31  1  0  0  0  0
 31 32  1  0  0  0  0
 31 54  1  0  0  0  0
 31 55  1  0  0  0  0
 32 33  1  0  0  0  0
 32 56  1  0  0  0  0
 32 57  1  0  0  0  0
 33 34  1  0  0  0  0
 33 35  1  0  0  0  0
 33 58  1  6  0  0  0
 34 36  1  0  0  0  0
 35 30  1  0  0  0  0
 35 59  1  0  0  0  0
 35 60  1  0  0  0  0
M  END
>  <minimizedAffinity>
-8.70491

$$$$
CHEMBL362718
 OpenBabel01042214213D

 60 64  0  0  0  0  0  0  0  0999 V2000
   37.0585   -2.3023   17.5441 C   0  0  1  0  0  0  0  0  0  0  0  0
   38.0027   -1.3934   16.2650 S   0  0  0  0  0  0  0  0  0  0  0  0
   36.8567   -0.0324   15.9565 C   0  0  0  0  0  0  0  0  0  0  0  0
   37.0041    0.6820   14.7596 C   0  0  0  0  0  0  0  0  0  0  0  0
   36.1383    1.7337   14.4460 C   0  0  0  0  0  0  0  0  0  0  0  0
   36.3093    2.4334   13.2536 O   0  0  0  0  0  0  0  0  0  0  0  0
   35.1080    2.0719   15.3304 C   0  0  0  0  0  0  0  0  0  0  0  0
   34.9425    1.3558   16.5176 C   0  0  0  0  0  0  0  0  0  0  0  0
   35.8078    0.3038   16.8396 C   0  0  0  0  0  0  0  0  0  0  0  0
   35.5616   -0.4175   18.0101 O   0  0  0  0  0  0  0  0  0  0  0  0
   36.4882   -1.3281   18.5915 C   0  0  1  0  0  0  0  0  0  0  0  0
   35.6977    3.1993   12.9966 H   0  0  0  0  0  0  0  0  0  0  0  0
   33.1625   -6.0375   15.6035 O   0  0  0  0  0  0  0  0  0  0  0  0
   34.1169   -5.1322   16.0615 C   0  0  0  0  0  0  0  0  0  0  0  0
   34.0460   -3.7947   15.6654 C   0  0  0  0  0  0  0  0  0  0  0  0
   34.9935   -2.8725   16.1192 C   0  0  0  0  0  0  0  0  0  0  0  0
   36.0371   -3.2788   16.9743 C   0  0  0  0  0  0  0  0  0  0  0  0
   36.0945   -4.6298   17.3690 C   0  0  0  0  0  0  0  0  0  0  0  0
   35.1442   -5.5481   16.9154 C   0  0  0  0  0  0  0  0  0  0  0  0
   33.1859   -7.0139   15.8743 H   0  0  0  0  0  0  0  0  0  0  0  0
   35.8444   -2.0664   19.7454 C   0  0  0  0  0  0  0  0  0  0  0  0
   34.4491   -2.0608   19.9216 C   0  0  0  0  0  0  0  0  0  0  0  0
   33.8637   -2.8008   20.9519 C   0  0  0  0  0  0  0  0  0  0  0  0
   34.6538   -3.5640   21.8174 C   0  0  0  0  0  0  0  0  0  0  0  0
   36.0497   -3.5795   21.6392 C   0  0  0  0  0  0  0  0  0  0  0  0
   36.6366   -2.8410   20.6078 C   0  0  0  0  0  0  0  0  0  0  0  0
   34.0162   -4.2915   22.8322 O   0  0  0  0  0  0  0  0  0  0  0  0
   32.8991   -3.8220   23.5831 C   0  0  0  0  0  0  0  0  0  0  0  0
   33.3730   -3.1780   24.8912 C   0  0  0  0  0  0  0  0  0  0  0  0
   32.6292   -1.9334   25.1979 N   0  0  0  0  0  0  0  0  0  0  0  0
   31.1906   -2.2033   25.4529 C   0  0  0  0  0  0  0  0  0  0  0  0
   30.4982   -1.0627   26.2026 C   0  0  0  0  0  0  0  0  0  0  0  0
   31.0665   -0.9564   27.9395 S   0  0  0  0  0  0  0  0  0  0  0  0
   32.7864   -1.5258   27.6747 C   0  0  0  0  0  0  0  0  0  0  0  0
   33.2953   -1.1594   26.2771 C   0  0  0  0  0  0  0  0  0  0  0  0
   37.7461   -2.9413   18.0577 H   0  0  0  0  0  0  0  0  0  0  0  0
   37.7593    0.4290   14.1034 H   0  0  0  0  0  0  0  0  0  0  0  0
   34.4700    2.8511   15.1050 H   0  0  0  0  0  0  0  0  0  0  0  0
   34.1762    1.6041   17.1627 H   0  0  0  0  0  0  0  0  0  0  0  0
   37.3145   -0.7656   18.9734 H   0  0  0  0  0  0  0  0  0  0  0  0
   33.2901   -3.4856   15.0344 H   0  0  0  0  0  0  0  0  0  0  0  0
   34.9281   -1.8854   15.8253 H   0  0  0  0  0  0  0  0  0  0  0  0
   36.8473   -4.9450   18.0006 H   0  0  0  0  0  0  0  0  0  0  0  0
   35.2002   -6.5353   17.2109 H   0  0  0  0  0  0  0  0  0  0  0  0
   33.8541   -1.5067   19.2860 H   0  0  0  0  0  0  0  0  0  0  0  0
   32.8392   -2.7841   21.0754 H   0  0  0  0  0  0  0  0  0  0  0  0
   36.6424   -4.1384   22.2727 H   0  0  0  0  0  0  0  0  0  0  0  0
   37.6603   -2.8653   20.4791 H   0  0  0  0  0  0  0  0  0  0  0  0
   32.2534   -4.6451   23.8080 H   0  0  0  0  0  0  0  0  0  0  0  0
   32.3723   -3.0916   23.0053 H   0  0  0  0  0  0  0  0  0  0  0  0
   34.4140   -2.9461   24.8049 H   0  0  0  0  0  0  0  0  0  0  0  0
   33.1962   -3.8732   25.6852 H   0  0  0  0  0  0  0  0  0  0  0  0
   31.1083   -3.0961   26.0369 H   0  0  0  0  0  0  0  0  0  0  0  0
   30.7081   -2.3050   24.5033 H   0  0  0  0  0  0  0  0  0  0  0  0
   29.4416   -1.2313   26.1925 H   0  0  0  0  0  0  0  0  0  0  0  0
   30.7427   -0.1431   25.7132 H   0  0  0  0  0  0  0  0  0  0  0  0
   32.8211   -2.5891   27.7887 H   0  0  0  0  0  0  0  0  0  0  0  0
   33.4126   -1.0424   28.3952 H   0  0  0  0  0  0  0  0  0  0  0  0
   34.3471   -1.3514   26.2356 H   0  0  0  0  0  0  0  0  0  0  0  0
   33.0725   -0.1255   26.1151 H   0  0  0  0  0  0  0  0  0  0  0  0
  1  2  1  0  0  0  0
  1 36  1  1  0  0  0
  2  3  1  0  0  0  0
  3  4  2  0  0  0  0
  4  5  1  0  0  0  0
  4 37  1  0  0  0  0
  5  6  1  0  0  0  0
  5  7  2  0  0  0  0
  6 12  1  0  0  0  0
  7  8  1  0  0  0  0
  7 38  1  0  0  0  0
  8  9  2  0  0  0  0
  8 39  1  0  0  0  0
  9 10  1  0  0  0  0
  9  3  1  0  0  0  0
 10 11  1  0  0  0  0
 11 21  1  0  0  0  0
 11  1  1  0  0  0  0
 11 40  1  1  0  0  0
 13 14  1  0  0  0  0
 13 20  1  0  0  0  0
 14 15  2  0  0  0  0
 15 16  1  0  0  0  0
 15 41  1  0  0  0  0
 16 17  2  0  0  0  0
 16 42  1  0  0  0  0
 17  1  1  0  0  0  0
 17 18  1  0  0  0  0
 18 19  2  0  0  0  0
 18 43  1  0  0  0  0
 19 14  1  0  0  0  0
 19 44  1  0  0  0  0
 21 22  2  0  0  0  0
 22 23  1  0  0  0  0
 22 45  1  0  0  0  0
 23 24  2  0  0  0  0
 23 46  1  0  0  0  0
 24 27  1  0  0  0  0
 24 25  1  0  0  0  0
 25 26  2  0  0  0  0
 25 47  1  0  0  0  0
 26 21  1  0  0  0  0
 26 48  1  0  0  0  0
 27 28  1  0  0  0  0
 28 29  1  0  0  0  0
 28 49  1  0  0  0  0
 28 50  1  0  0  0  0
 29 30  1  0  0  0  0
 29 51  1  0  0  0  0
 29 52  1  0  0  0  0
 30 31  1  0  0  0  0
 31 32  1  0  0  0  0
 31 53  1  0  0  0  0
 31 54  1  0  0  0  0
 32 33  1  0  0  0  0
 32 55  1  0  0  0  0
 32 56  1  0  0  0  0
 33 34  1  0  0  0  0
 34 35  1  0  0  0  0
 34 57  1  0  0  0  0
 34 58  1  0  0  0  0
 35 30  1  0  0  0  0
 35 59  1  0  0  0  0
 35 60  1  0  0  0  0
M  END
>  <minimizedAffinity>
-8.72067

$$$$
CHEMBL304552
 OpenBabel01042214213D

 62 66  0  0  0  0  0  0  0  0999 V2000
   36.8615   -2.6088   17.4229 C   0  0  1  0  0  0  0  0  0  0  0  0
   37.8858   -2.7312   18.9288 S   0  0  0  0  0  0  0  0  0  0  0  0
   36.4796   -3.0212   20.0021 C   0  0  0  0  0  0  0  0  0  0  0  0
   36.6128   -3.9178   21.0678 C   0  0  0  0  0  0  0  0  0  0  0  0
   35.5693   -4.0802   21.9894 C   0  0  0  0  0  0  0  0  0  0  0  0
   35.7050   -4.9520   23.0691 O   0  0  0  0  0  0  0  0  0  0  0  0
   34.3865   -3.3493   21.8337 C   0  0  0  0  0  0  0  0  0  0  0  0
   34.2376   -2.4746   20.7530 C   0  0  0  0  0  0  0  0  0  0  0  0
   35.2687   -2.3236   19.8177 C   0  0  0  0  0  0  0  0  0  0  0  0
   35.0368   -1.5129   18.6957 O   0  0  0  0  0  0  0  0  0  0  0  0
   35.8749   -1.4187   17.5361 C   0  0  1  0  0  0  0  0  0  0  0  0
   36.5684   -5.4564   23.2367 H   0  0  0  0  0  0  0  0  0  0  0  0
   40.1347   -2.4014   12.7256 O   0  0  0  0  0  0  0  0  0  0  0  0
   39.3413   -2.4489   13.8685 C   0  0  0  0  0  0  0  0  0  0  0  0
   39.9085   -2.2832   15.1401 C   0  0  0  0  0  0  0  0  0  0  0  0
   39.1008   -2.3310   16.2806 C   0  0  0  0  0  0  0  0  0  0  0  0
   37.7118   -2.5307   16.1662 C   0  0  0  0  0  0  0  0  0  0  0  0
   37.1566   -2.7187   14.8833 C   0  0  0  0  0  0  0  0  0  0  0  0
   37.9666   -2.6690   13.7446 C   0  0  0  0  0  0  0  0  0  0  0  0
   41.1321   -2.2516   12.7844 H   0  0  0  0  0  0  0  0  0  0  0  0
   36.5490   -0.0595   17.4941 C   0  0  0  0  0  0  0  0  0  0  0  0
   37.0858    0.4915   18.6716 C   0  0  0  0  0  0  0  0  0  0  0  0
   37.6852    1.7531   18.6566 C   0  0  0  0  0  0  0  0  0  0  0  0
   37.7651    2.4884   17.4559 C   0  0  0  0  0  0  0  0  0  0  0  0
   37.2283    1.9409   16.2841 C   0  0  0  0  0  0  0  0  0  0  0  0
   36.6295    0.6784   16.2982 C   0  0  0  0  0  0  0  0  0  0  0  0
   38.3573    3.7607   17.3792 O   0  0  0  0  0  0  0  0  0  0  0  0
   38.2516    4.6607   16.2752 C   0  0  0  0  0  0  0  0  0  0  0  0
   38.4214    6.1108   16.7383 C   0  0  0  0  0  0  0  0  0  0  0  0
   39.3046    6.1679   17.9255 N   0  0  0  0  0  0  0  0  0  0  0  0
   40.6726    6.5841   17.5515 C   0  0  0  0  0  0  0  0  0  0  0  0
   41.6330    6.5297   18.7570 C   0  0  0  0  0  0  0  0  0  0  0  0
   40.9027    6.2804   20.0806 C   0  0  0  0  0  0  0  0  0  0  0  0
   39.6624    7.1721   20.1948 C   0  0  0  0  0  0  0  0  0  0  0  0
   38.7543    7.0827   18.9482 C   0  0  0  0  0  0  0  0  0  0  0  0
   36.2841   -3.5056   17.3384 H   0  0  0  0  0  0  0  0  0  0  0  0
   37.4830   -4.4619   21.1758 H   0  0  0  0  0  0  0  0  0  0  0  0
   33.6218   -3.4560   22.5184 H   0  0  0  0  0  0  0  0  0  0  0  0
   33.3632   -1.9375   20.6441 H   0  0  0  0  0  0  0  0  0  0  0  0
   35.2624   -1.4953   16.6621 H   0  0  0  0  0  0  0  0  0  0  0  0
   40.9240   -2.1257   15.2345 H   0  0  0  0  0  0  0  0  0  0  0  0
   39.5264   -2.2190   17.2140 H   0  0  0  0  0  0  0  0  0  0  0  0
   36.1445   -2.8943   14.7843 H   0  0  0  0  0  0  0  0  0  0  0  0
   37.5481   -2.7952   12.8098 H   0  0  0  0  0  0  0  0  0  0  0  0
   37.0364   -0.0409   19.5543 H   0  0  0  0  0  0  0  0  0  0  0  0
   38.0713    2.1488   19.5280 H   0  0  0  0  0  0  0  0  0  0  0  0
   37.2754    2.4747   15.4021 H   0  0  0  0  0  0  0  0  0  0  0  0
   36.2437    0.2844   15.4259 H   0  0  0  0  0  0  0  0  0  0  0  0
   37.2893    4.5477   15.8212 H   0  0  0  0  0  0  0  0  0  0  0  0
   39.0243    4.4325   15.5711 H   0  0  0  0  0  0  0  0  0  0  0  0
   37.4637    6.5159   16.9904 H   0  0  0  0  0  0  0  0  0  0  0  0
   38.8622    6.6808   15.9473 H   0  0  0  0  0  0  0  0  0  0  0  0
   40.6406    7.5863   17.1782 H   0  0  0  0  0  0  0  0  0  0  0  0
   41.0350    5.9090   16.8046 H   0  0  0  0  0  0  0  0  0  0  0  0
   42.1535    7.4623   18.8230 H   0  0  0  0  0  0  0  0  0  0  0  0
   42.3059    5.7129   18.5990 H   0  0  0  0  0  0  0  0  0  0  0  0
   41.5653    6.4957   20.8927 H   0  0  0  0  0  0  0  0  0  0  0  0
   40.5930    5.2567   20.1135 H   0  0  0  0  0  0  0  0  0  0  0  0
   39.9791    8.1868   20.3169 H   0  0  0  0  0  0  0  0  0  0  0  0
   39.0946    6.8339   21.0363 H   0  0  0  0  0  0  0  0  0  0  0  0
   38.6566    8.0590   18.5214 H   0  0  0  0  0  0  0  0  0  0  0  0
   37.8050    6.6985   19.2582 H   0  0  0  0  0  0  0  0  0  0  0  0
  1  2  1  0  0  0  0
  1 36  1  6  0  0  0
  2  3  1  0  0  0  0
  3  4  2  0  0  0  0
  4  5  1  0  0  0  0
  4 37  1  0  0  0  0
  5  6  1  0  0  0  0
  5  7  2  0  0  0  0
  6 12  1  0  0  0  0
  7  8  1  0  0  0  0
  7 38  1  0  0  0  0
  8  9  2  0  0  0  0
  8 39  1  0  0  0  0
  9 10  1  0  0  0  0
  9  3  1  0  0  0  0
 10 11  1  0  0  0  0
 11 21  1  0  0  0  0
 11  1  1  0  0  0  0
 11 40  1  6  0  0  0
 13 14  1  0  0  0  0
 13 20  1  0  0  0  0
 14 15  2  0  0  0  0
 15 16  1  0  0  0  0
 15 41  1  0  0  0  0
 16 17  2  0  0  0  0
 16 42  1  0  0  0  0
 17  1  1  0  0  0  0
 17 18  1  0  0  0  0
 18 19  2  0  0  0  0
 18 43  1  0  0  0  0
 19 14  1  0  0  0  0
 19 44  1  0  0  0  0
 21 22  2  0  0  0  0
 22 23  1  0  0  0  0
 22 45  1  0  0  0  0
 23 24  2  0  0  0  0
 23 46  1  0  0  0  0
 24 27  1  0  0  0  0
 24 25  1  0  0  0  0
 25 26  2  0  0  0  0
 25 47  1  0  0  0  0
 26 21  1  0  0  0  0
 26 48  1  0  0  0  0
 27 28  1  0  0  0  0
 28 29  1  0  0  0  0
 28 49  1  0  0  0  0
 28 50  1  0  0  0  0
 29 30  1  0  0  0  0
 29 51  1  0  0  0  0
 29 52  1  0  0  0  0
 30 31  1  0  0  0  0
 31 32  1  0  0  0  0
 31 53  1  0  0  0  0
 31 54  1  0  0  0  0
 32 33  1  0  0  0  0
 32 55  1  0  0  0  0
 32 56  1  0  0  0  0
 33 34  1  0  0  0  0
 33 57  1  0  0  0  0
 33 58  1  0  0  0  0
 34 35  1  0  0  0  0
 34 59  1  0  0  0  0
 34 60  1  0  0  0  0
 35 30  1  0  0  0  0
 35 61  1  0  0  0  0
 35 62  1  0  0  0  0
M  END
>  <minimizedAffinity>
-8.73318

$$$$
CHEMBL362718
 OpenBabel01042214213D

 60 64  0  0  0  0  0  0  0  0999 V2000
   37.6023   -1.2166   17.2529 C   0  0  1  0  0  0  0  0  0  0  0  0
   38.4146    0.0312   16.1866 S   0  0  0  0  0  0  0  0  0  0  0  0
   37.0040    1.1102   15.8594 C   0  0  0  0  0  0  0  0  0  0  0  0
   37.0883    1.9731   14.7580 C   0  0  0  0  0  0  0  0  0  0  0  0
   36.0248    2.8203   14.4333 C   0  0  0  0  0  0  0  0  0  0  0  0
   36.1350    3.6739   13.3380 O   0  0  0  0  0  0  0  0  0  0  0  0
   34.8604    2.8013   15.2091 C   0  0  0  0  0  0  0  0  0  0  0  0
   34.7601    1.9336   16.2985 C   0  0  0  0  0  0  0  0  0  0  0  0
   35.8222    1.0851   16.6314 C   0  0  0  0  0  0  0  0  0  0  0  0
   35.6471    0.1954   17.6938 O   0  0  0  0  0  0  0  0  0  0  0  0
   36.7077   -0.5323   18.3032 C   0  0  1  0  0  0  0  0  0  0  0  0
   35.3816    4.2987   13.0756 H   0  0  0  0  0  0  0  0  0  0  0  0
   34.9942   -5.5307   14.5174 O   0  0  0  0  0  0  0  0  0  0  0  0
   35.6356   -4.4796   15.1686 C   0  0  0  0  0  0  0  0  0  0  0  0
   35.1424   -3.1799   15.0334 C   0  0  0  0  0  0  0  0  0  0  0  0
   35.7718   -2.1143   15.6834 C   0  0  0  0  0  0  0  0  0  0  0  0
   36.9158   -2.3334   16.4764 C   0  0  0  0  0  0  0  0  0  0  0  0
   37.4003   -3.6496   16.6073 C   0  0  0  0  0  0  0  0  0  0  0  0
   36.7670   -4.7124   15.9581 C   0  0  0  0  0  0  0  0  0  0  0  0
   35.3267   -6.4847   14.5973 H   0  0  0  0  0  0  0  0  0  0  0  0
   36.1553   -1.5302   19.2982 C   0  0  0  0  0  0  0  0  0  0  0  0
   37.0099   -2.2612   20.1426 C   0  0  0  0  0  0  0  0  0  0  0  0
   36.4830   -3.1296   21.1018 C   0  0  0  0  0  0  0  0  0  0  0  0
   35.0995   -3.2790   21.2427 C   0  0  0  0  0  0  0  0  0  0  0  0
   34.2404   -2.5427   20.4058 C   0  0  0  0  0  0  0  0  0  0  0  0
   34.7663   -1.6722   19.4469 C   0  0  0  0  0  0  0  0  0  0  0  0
   34.6224   -4.1601   22.2232 O   0  0  0  0  0  0  0  0  0  0  0  0
   33.3332   -4.0769   22.8259 C   0  0  0  0  0  0  0  0  0  0  0  0
   33.4139   -3.2990   24.1445 C   0  0  0  0  0  0  0  0  0  0  0  0
   32.0899   -2.7844   24.5668 N   0  0  0  0  0  0  0  0  0  0  0  0
   31.8771   -2.9520   26.0275 C   0  0  0  0  0  0  0  0  0  0  0  0
   30.7660   -2.0507   26.5712 C   0  0  0  0  0  0  0  0  0  0  0  0
   31.2671   -0.2899   26.5701 S   0  0  0  0  0  0  0  0  0  0  0  0
   32.3386   -0.3361   25.0862 C   0  0  0  0  0  0  0  0  0  0  0  0
   31.8720   -1.3964   24.0837 C   0  0  0  0  0  0  0  0  0  0  0  0
   38.3720   -1.7308   17.7896 H   0  0  0  0  0  0  0  0  0  0  0  0
   37.9439    1.9831   14.1811 H   0  0  0  0  0  0  0  0  0  0  0  0
   34.0752    3.4291   14.9759 H   0  0  0  0  0  0  0  0  0  0  0  0
   33.8961    1.9178   16.8626 H   0  0  0  0  0  0  0  0  0  0  0  0
   37.3270    0.1609   18.8331 H   0  0  0  0  0  0  0  0  0  0  0  0
   34.3089   -3.0053   14.4505 H   0  0  0  0  0  0  0  0  0  0  0  0
   35.3953   -1.1588   15.5816 H   0  0  0  0  0  0  0  0  0  0  0  0
   38.2328   -3.8310   17.1896 H   0  0  0  0  0  0  0  0  0  0  0  0
   37.1345   -5.6712   16.0611 H   0  0  0  0  0  0  0  0  0  0  0  0
   38.0326   -2.1555   20.0531 H   0  0  0  0  0  0  0  0  0  0  0  0
   37.1201   -3.6655   21.7117 H   0  0  0  0  0  0  0  0  0  0  0  0
   33.2179   -2.6459   20.5005 H   0  0  0  0  0  0  0  0  0  0  0  0
   34.1287   -1.1296   18.8435 H   0  0  0  0  0  0  0  0  0  0  0  0
   32.9694   -5.0643   23.0198 H   0  0  0  0  0  0  0  0  0  0  0  0
   32.6689   -3.5669   22.1599 H   0  0  0  0  0  0  0  0  0  0  0  0
   34.0815   -2.4725   24.0178 H   0  0  0  0  0  0  0  0  0  0  0  0
   33.7658   -3.9678   24.9020 H   0  0  0  0  0  0  0  0  0  0  0  0
   32.7887   -2.7154   26.5353 H   0  0  0  0  0  0  0  0  0  0  0  0
   31.5812   -3.9663   26.1961 H   0  0  0  0  0  0  0  0  0  0  0  0
   30.5382   -2.3465   27.5740 H   0  0  0  0  0  0  0  0  0  0  0  0
   29.9096   -2.1558   25.9384 H   0  0  0  0  0  0  0  0  0  0  0  0
   33.3400   -0.5614   25.3884 H   0  0  0  0  0  0  0  0  0  0  0  0
   32.2884    0.6200   24.6084 H   0  0  0  0  0  0  0  0  0  0  0  0
   32.4130   -1.2640   23.1701 H   0  0  0  0  0  0  0  0  0  0  0  0
   30.8190   -1.2662   23.9454 H   0  0  0  0  0  0  0  0  0  0  0  0
  1  2  1  0  0  0  0
  1 36  1  1  0  0  0
  2  3  1  0  0  0  0
  3  4  2  0  0  0  0
  4  5  1  0  0  0  0
  4 37  1  0  0  0  0
  5  6  1  0  0  0  0
  5  7  2  0  0  0  0
  6 12  1  0  0  0  0
  7  8  1  0  0  0  0
  7 38  1  0  0  0  0
  8  9  2  0  0  0  0
  8 39  1  0  0  0  0
  9 10  1  0  0  0  0
  9  3  1  0  0  0  0
 10 11  1  0  0  0  0
 11 21  1  0  0  0  0
 11  1  1  0  0  0  0
 11 40  1  1  0  0  0
 13 14  1  0  0  0  0
 13 20  1  0  0  0  0
 14 15  2  0  0  0  0
 15 16  1  0  0  0  0
 15 41  1  0  0  0  0
 16 17  2  0  0  0  0
 16 42  1  0  0  0  0
 17  1  1  0  0  0  0
 17 18  1  0  0  0  0
 18 19  2  0  0  0  0
 18 43  1  0  0  0  0
 19 14  1  0  0  0  0
 19 44  1  0  0  0  0
 21 22  2  0  0  0  0
 22 23  1  0  0  0  0
 22 45  1  0  0  0  0
 23 24  2  0  0  0  0
 23 46  1  0  0  0  0
 24 27  1  0  0  0  0
 24 25  1  0  0  0  0
 25 26  2  0  0  0  0
 25 47  1  0  0  0  0
 26 21  1  0  0  0  0
 26 48  1  0  0  0  0
 27 28  1  0  0  0  0
 28 29  1  0  0  0  0
 28 49  1  0  0  0  0
 28 50  1  0  0  0  0
 29 30  1  0  0  0  0
 29 51  1  0  0  0  0
 29 52  1  0  0  0  0
 30 31  1  0  0  0  0
 31 32  1  0  0  0  0
 31 53  1  0  0  0  0
 31 54  1  0  0  0  0
 32 33  1  0  0  0  0
 32 55  1  0  0  0  0
 32 56  1  0  0  0  0
 33 34  1  0  0  0  0
 34 35  1  0  0  0  0
 34 57  1  0  0  0  0
 34 58  1  0  0  0  0
 35 30  1  0  0  0  0
 35 59  1  0  0  0  0
 35 60  1  0  0  0  0
M  END
>  <minimizedAffinity>
-8.78343

$$$$
CHEMBL184679
 OpenBabel01042214213D

 59 63  0  0  0  0  0  0  0  0999 V2000
   33.0911   -2.8546   18.3290 C   0  0  1  0  0  0  0  0  0  0  0  0
   32.8296   -3.3380   16.5910 S   0  0  0  0  0  0  0  0  0  0  0  0
   34.4486   -4.0820   16.3856 C   0  0  0  0  0  0  0  0  0  0  0  0
   35.1187   -3.9253   15.1670 C   0  0  0  0  0  0  0  0  0  0  0  0
   36.3492   -4.5598   14.9521 C   0  0  0  0  0  0  0  0  0  0  0  0
   37.0131   -4.4260   13.7336 O   0  0  0  0  0  0  0  0  0  0  0  0
   36.9081   -5.3508   15.9597 C   0  0  0  0  0  0  0  0  0  0  0  0
   36.2547   -5.4874   17.1869 C   0  0  0  0  0  0  0  0  0  0  0  0
   35.0377   -4.8356   17.4179 C   0  0  0  0  0  0  0  0  0  0  0  0
   34.4867   -4.8893   18.7057 O   0  0  0  0  0  0  0  0  0  0  0  0
   33.3592   -4.1336   19.1708 C   0  0  1  0  0  0  0  0  0  0  0  0
   36.6341   -3.8585   12.9820 H   0  0  0  0  0  0  0  0  0  0  0  0
   36.8916    1.4439   18.4369 O   0  0  0  0  0  0  0  0  0  0  0  0
   35.9579    0.4092   18.4286 C   0  0  0  0  0  0  0  0  0  0  0  0
   35.0225    0.2984   17.3936 C   0  0  0  0  0  0  0  0  0  0  0  0
   34.0967   -0.7490   17.3938 C   0  0  0  0  0  0  0  0  0  0  0  0
   34.0865   -1.7039   18.4289 C   0  0  0  0  0  0  0  0  0  0  0  0
   35.0393   -1.5848   19.4630 C   0  0  0  0  0  0  0  0  0  0  0  0
   35.9593   -0.5308   19.4631 C   0  0  0  0  0  0  0  0  0  0  0  0
   36.9444    2.1203   17.6835 H   0  0  0  0  0  0  0  0  0  0  0  0
   33.4764   -3.8365   20.6573 C   0  0  0  0  0  0  0  0  0  0  0  0
   34.5878   -4.2598   21.4100 C   0  0  0  0  0  0  0  0  0  0  0  0
   34.6593   -4.0054   22.7825 C   0  0  0  0  0  0  0  0  0  0  0  0
   33.6216   -3.3141   23.4327 C   0  0  0  0  0  0  0  0  0  0  0  0
   32.5221   -2.8798   22.6847 C   0  0  0  0  0  0  0  0  0  0  0  0
   32.4406   -3.1493   21.3155 C   0  0  0  0  0  0  0  0  0  0  0  0
   33.6405   -3.0371   24.8100 O   0  0  0  0  0  0  0  0  0  0  0  0
   32.5481   -3.2447   25.7071 C   0  0  0  0  0  0  0  0  0  0  0  0
   32.5366   -2.1617   26.7924 C   0  0  0  0  0  0  0  0  0  0  0  0
   33.3110   -0.9802   26.3626 N   0  0  0  0  0  0  0  0  0  0  0  0
   34.4055   -0.6363   27.2930 C   0  0  0  0  0  0  0  0  0  0  0  0
   34.4375    0.8878   27.4362 C   0  0  0  0  0  0  0  0  0  0  0  0
   33.3749    1.4040   26.4837 C   0  0  1  0  0  0  0  0  0  0  0  0
   33.9579    1.7653   25.2779 F   0  0  0  0  0  0  0  0  0  0  0  0
   32.4598    0.2133   26.2778 C   0  0  0  0  0  0  0  0  0  0  0  0
   32.2166   -2.4271   18.7733 H   0  0  0  0  0  0  0  0  0  0  0  0
   34.7051   -3.3404   14.4242 H   0  0  0  0  0  0  0  0  0  0  0  0
   37.8049   -5.8348   15.7969 H   0  0  0  0  0  0  0  0  0  0  0  0
   36.6718   -6.0724   17.9277 H   0  0  0  0  0  0  0  0  0  0  0  0
   32.4950   -4.7488   19.0306 H   0  0  0  0  0  0  0  0  0  0  0  0
   35.0162    0.9912   16.6288 H   0  0  0  0  0  0  0  0  0  0  0  0
   33.4118   -0.8235   16.6254 H   0  0  0  0  0  0  0  0  0  0  0  0
   35.0576   -2.2805   20.2250 H   0  0  0  0  0  0  0  0  0  0  0  0
   36.6430   -0.4468   20.2315 H   0  0  0  0  0  0  0  0  0  0  0  0
   35.3583   -4.7635   20.9435 H   0  0  0  0  0  0  0  0  0  0  0  0
   35.4784   -4.3267   23.3218 H   0  0  0  0  0  0  0  0  0  0  0  0
   31.7638   -2.3553   23.1483 H   0  0  0  0  0  0  0  0  0  0  0  0
   31.6124   -2.8411   20.7824 H   0  0  0  0  0  0  0  0  0  0  0  0
   32.6477   -4.2051   26.1681 H   0  0  0  0  0  0  0  0  0  0  0  0
   31.6319   -3.1952   25.1567 H   0  0  0  0  0  0  0  0  0  0  0  0
   32.9687   -2.5576   27.6876 H   0  0  0  0  0  0  0  0  0  0  0  0
   31.5243   -1.8629   26.9679 H   0  0  0  0  0  0  0  0  0  0  0  0
   35.3385   -0.9847   26.9019 H   0  0  0  0  0  0  0  0  0  0  0  0
   34.2451   -1.0976   28.2451 H   0  0  0  0  0  0  0  0  0  0  0  0
   35.3999    1.2692   27.1657 H   0  0  0  0  0  0  0  0  0  0  0  0
   34.2530    1.1969   28.4438 H   0  0  0  0  0  0  0  0  0  0  0  0
   32.8611    2.2643   26.8589 H   0  0  0  0  0  0  0  0  0  0  0  0
   31.9921    0.2673   25.3170 H   0  0  0  0  0  0  0  0  0  0  0  0
   31.6819    0.1891   27.0121 H   0  0  0  0  0  0  0  0  0  0  0  0
  1  2  1  0  0  0  0
  1 36  1  1  0  0  0
  2  3  1  0  0  0  0
  3  4  2  0  0  0  0
  4  5  1  0  0  0  0
  4 37  1  0  0  0  0
  5  6  1  0  0  0  0
  5  7  2  0  0  0  0
  6 12  1  0  0  0  0
  7  8  1  0  0  0  0
  7 38  1  0  0  0  0
  8  9  2  0  0  0  0
  8 39  1  0  0  0  0
  9 10  1  0  0  0  0
  9  3  1  0  0  0  0
 10 11  1  0  0  0  0
 11 21  1  0  0  0  0
 11  1  1  0  0  0  0
 11 40  1  6  0  0  0
 13 14  1  0  0  0  0
 13 20  1  0  0  0  0
 14 15  2  0  0  0  0
 15 16  1  0  0  0  0
 15 41  1  0  0  0  0
 16 17  2  0  0  0  0
 16 42  1  0  0  0  0
 17  1  1  0  0  0  0
 17 18  1  0  0  0  0
 18 19  2  0  0  0  0
 18 43  1  0  0  0  0
 19 14  1  0  0  0  0
 19 44  1  0  0  0  0
 21 22  2  0  0  0  0
 22 23  1  0  0  0  0
 22 45  1  0  0  0  0
 23 24  2  0  0  0  0
 23 46  1  0  0  0  0
 24 27  1  0  0  0  0
 24 25  1  0  0  0  0
 25 26  2  0  0  0  0
 25 47  1  0  0  0  0
 26 21  1  0  0  0  0
 26 48  1  0  0  0  0
 27 28  1  0  0  0  0
 28 29  1  0  0  0  0
 28 49  1  0  0  0  0
 28 50  1  0  0  0  0
 29 30  1  0  0  0  0
 29 51  1  0  0  0  0
 29 52  1  0  0  0  0
 30 31  1  0  0  0  0
 31 32  1  0  0  0  0
 31 53  1  0  0  0  0
 31 54  1  0  0  0  0
 32 33  1  0  0  0  0
 32 55  1  0  0  0  0
 32 56  1  0  0  0  0
 33 34  1  0  0  0  0
 33 35  1  0  0  0  0
 33 57  1  1  0  0  0
 35 30  1  0  0  0  0
 35 58  1  0  0  0  0
 35 59  1  0  0  0  0
M  END
>  <minimizedAffinity>
-8.79918

$$$$
CHEMBL362718
 OpenBabel01042214213D

 60 64  0  0  0  0  0  0  0  0999 V2000
   36.3685   -3.5022   17.8711 C   0  0  1  0  0  0  0  0  0  0  0  0
   37.3599   -3.0211   16.4085 S   0  0  0  0  0  0  0  0  0  0  0  0
   36.6490   -1.3926   16.0866 C   0  0  0  0  0  0  0  0  0  0  0  0
   36.8413   -0.8405   14.8127 C   0  0  0  0  0  0  0  0  0  0  0  0
   36.3004    0.4068   14.4874 C   0  0  0  0  0  0  0  0  0  0  0  0
   36.5109    0.9379   13.2168 O   0  0  0  0  0  0  0  0  0  0  0  0
   35.5515    1.1082   15.4390 C   0  0  0  0  0  0  0  0  0  0  0  0
   35.3405    0.5595   16.7055 C   0  0  0  0  0  0  0  0  0  0  0  0
   35.8819   -0.6873   17.0391 C   0  0  0  0  0  0  0  0  0  0  0  0
   35.5909   -1.2167   18.2984 O   0  0  0  0  0  0  0  0  0  0  0  0
   36.2684   -2.3318   18.8670 C   0  0  1  0  0  0  0  0  0  0  0  0
   36.1309    1.8384   12.9496 H   0  0  0  0  0  0  0  0  0  0  0  0
   31.3004   -5.9510   16.7690 O   0  0  0  0  0  0  0  0  0  0  0  0
   32.5365   -5.3611   17.0226 C   0  0  0  0  0  0  0  0  0  0  0  0
   32.8070   -4.0840   16.5260 C   0  0  0  0  0  0  0  0  0  0  0  0
   34.0410   -3.4761   16.7748 C   0  0  0  0  0  0  0  0  0  0  0  0
   35.0317   -4.1442   17.5217 C   0  0  0  0  0  0  0  0  0  0  0  0
   34.7442   -5.4301   18.0198 C   0  0  0  0  0  0  0  0  0  0  0  0
   33.5088   -6.0334   17.7712 C   0  0  0  0  0  0  0  0  0  0  0  0
   31.0735   -6.8754   17.1172 H   0  0  0  0  0  0  0  0  0  0  0  0
   35.5950   -2.7537   20.1552 C   0  0  0  0  0  0  0  0  0  0  0  0
   34.2716   -2.3726   20.4401 C   0  0  0  0  0  0  0  0  0  0  0  0
   33.6402   -2.8242   21.6016 C   0  0  0  0  0  0  0  0  0  0  0  0
   34.3103   -3.6677   22.4936 C   0  0  0  0  0  0  0  0  0  0  0  0
   35.6317   -4.0588   22.2080 C   0  0  0  0  0  0  0  0  0  0  0  0
   36.2640   -3.6091   21.0454 C   0  0  0  0  0  0  0  0  0  0  0  0
   33.6301   -4.0956   23.6424 O   0  0  0  0  0  0  0  0  0  0  0  0
   32.5262   -3.4111   24.2297 C   0  0  0  0  0  0  0  0  0  0  0  0
   32.7236   -3.2896   25.7452 C   0  0  0  0  0  0  0  0  0  0  0  0
   33.2278   -1.9512   26.1333 N   0  0  0  0  0  0  0  0  0  0  0  0
   32.6681   -0.8822   25.2666 C   0  0  0  0  0  0  0  0  0  0  0  0
   32.7848    0.5095   25.8929 C   0  0  0  0  0  0  0  0  0  0  0  0
   31.6573    0.7007   27.3224 S   0  0  0  0  0  0  0  0  0  0  0  0
   31.7030   -1.0328   27.9101 C   0  0  0  0  0  0  0  0  0  0  0  0
   33.0408   -1.7053   27.5866 C   0  0  0  0  0  0  0  0  0  0  0  0
   36.8936   -4.2895   18.3704 H   0  0  0  0  0  0  0  0  0  0  0  0
   37.3876   -1.3600   14.1079 H   0  0  0  0  0  0  0  0  0  0  0  0
   35.1549    2.0316   15.2045 H   0  0  0  0  0  0  0  0  0  0  0  0
   34.7810    1.0773   17.4010 H   0  0  0  0  0  0  0  0  0  0  0  0
   37.2702   -2.0330   19.0953 H   0  0  0  0  0  0  0  0  0  0  0  0
   32.0921   -3.5865   15.9725 H   0  0  0  0  0  0  0  0  0  0  0  0
   34.2281   -2.5297   16.4082 H   0  0  0  0  0  0  0  0  0  0  0  0
   35.4545   -5.9325   18.5749 H   0  0  0  0  0  0  0  0  0  0  0  0
   33.3130   -6.9769   18.1405 H   0  0  0  0  0  0  0  0  0  0  0  0
   33.7638   -1.7555   19.7871 H   0  0  0  0  0  0  0  0  0  0  0  0
   32.6709   -2.5329   21.8032 H   0  0  0  0  0  0  0  0  0  0  0  0
   36.1359   -4.6802   22.8597 H   0  0  0  0  0  0  0  0  0  0  0  0
   37.2301   -3.9081   20.8397 H   0  0  0  0  0  0  0  0  0  0  0  0
   31.6270   -3.9567   24.0331 H   0  0  0  0  0  0  0  0  0  0  0  0
   32.4586   -2.4305   23.8069 H   0  0  0  0  0  0  0  0  0  0  0  0
   33.4284   -4.0296   26.0623 H   0  0  0  0  0  0  0  0  0  0  0  0
   31.7732   -3.4341   26.2151 H   0  0  0  0  0  0  0  0  0  0  0  0
   31.6339   -1.0919   25.0894 H   0  0  0  0  0  0  0  0  0  0  0  0
   33.2326   -0.8753   24.3576 H   0  0  0  0  0  0  0  0  0  0  0  0
   32.5381    1.2442   25.1552 H   0  0  0  0  0  0  0  0  0  0  0  0
   33.7891    0.6381   26.2388 H   0  0  0  0  0  0  0  0  0  0  0  0
   30.9158   -1.5807   27.4358 H   0  0  0  0  0  0  0  0  0  0  0  0
   31.5803   -1.0281   28.9730 H   0  0  0  0  0  0  0  0  0  0  0  0
   33.0844   -2.6431   28.0999 H   0  0  0  0  0  0  0  0  0  0  0  0
   33.8185   -1.0418   27.9027 H   0  0  0  0  0  0  0  0  0  0  0  0
  1  2  1  0  0  0  0
  1 36  1  1  0  0  0
  2  3  1  0  0  0  0
  3  4  2  0  0  0  0
  4  5  1  0  0  0  0
  4 37  1  0  0  0  0
  5  6  1  0  0  0  0
  5  7  2  0  0  0  0
  6 12  1  0  0  0  0
  7  8  1  0  0  0  0
  7 38  1  0  0  0  0
  8  9  2  0  0  0  0
  8 39  1  0  0  0  0
  9 10  1  0  0  0  0
  9  3  1  0  0  0  0
 10 11  1  0  0  0  0
 11 21  1  0  0  0  0
 11  1  1  0  0  0  0
 11 40  1  1  0  0  0
 13 14  1  0  0  0  0
 13 20  1  0  0  0  0
 14 15  2  0  0  0  0
 15 16  1  0  0  0  0
 15 41  1  0  0  0  0
 16 17  2  0  0  0  0
 16 42  1  0  0  0  0
 17  1  1  0  0  0  0
 17 18  1  0  0  0  0
 18 19  2  0  0  0  0
 18 43  1  0  0  0  0
 19 14  1  0  0  0  0
 19 44  1  0  0  0  0
 21 22  2  0  0  0  0
 22 23  1  0  0  0  0
 22 45  1  0  0  0  0
 23 24  2  0  0  0  0
 23 46  1  0  0  0  0
 24 27  1  0  0  0  0
 24 25  1  0  0  0  0
 25 26  2  0  0  0  0
 25 47  1  0  0  0  0
 26 21  1  0  0  0  0
 26 48  1  0  0  0  0
 27 28  1  0  0  0  0
 28 29  1  0  0  0  0
 28 49  1  0  0  0  0
 28 50  1  0  0  0  0
 29 30  1  0  0  0  0
 29 51  1  0  0  0  0
 29 52  1  0  0  0  0
 30 31  1  0  0  0  0
 31 32  1  0  0  0  0
 31 53  1  0  0  0  0
 31 54  1  0  0  0  0
 32 33  1  0  0  0  0
 32 55  1  0  0  0  0
 32 56  1  0  0  0  0
 33 34  1  0  0  0  0
 34 35  1  0  0  0  0
 34 57  1  0  0  0  0
 34 58  1  0  0  0  0
 35 30  1  0  0  0  0
 35 59  1  0  0  0  0
 35 60  1  0  0  0  0
M  END
>  <minimizedAffinity>
-8.80319

$$$$
CHEMBL304552
 OpenBabel01042214213D

 62 66  0  0  0  0  0  0  0  0999 V2000
   39.4070   -0.7096   14.8504 C   0  0  1  0  0  0  0  0  0  0  0  0
   40.2793   -2.2843   15.1705 S   0  0  0  0  0  0  0  0  0  0  0  0
   40.6276   -2.5710   13.4380 C   0  0  0  0  0  0  0  0  0  0  0  0
   41.8630   -3.1193   13.0657 C   0  0  0  0  0  0  0  0  0  0  0  0
   42.1073   -3.4607   11.7275 C   0  0  0  0  0  0  0  0  0  0  0  0
   43.3165   -4.0391   11.3467 O   0  0  0  0  0  0  0  0  0  0  0  0
   41.1217   -3.2355   10.7629 C   0  0  0  0  0  0  0  0  0  0  0  0
   39.8939   -2.6774   11.1295 C   0  0  0  0  0  0  0  0  0  0  0  0
   39.6459   -2.3232   12.4617 C   0  0  0  0  0  0  0  0  0  0  0  0
   38.4277   -1.7027   12.7776 O   0  0  0  0  0  0  0  0  0  0  0  0
   38.1528   -0.9402   13.9631 C   0  0  1  0  0  0  0  0  0  0  0  0
   44.0490   -4.2402   12.0200 H   0  0  0  0  0  0  0  0  0  0  0  0
   37.8819    2.0764   19.6197 O   0  0  0  0  0  0  0  0  0  0  0  0
   38.2567    1.4017   18.4606 C   0  0  0  0  0  0  0  0  0  0  0  0
   38.6056    0.0499   18.5342 C   0  0  0  0  0  0  0  0  0  0  0  0
   38.9908   -0.6399   17.3817 C   0  0  0  0  0  0  0  0  0  0  0  0
   39.0560    0.0239   16.1349 C   0  0  0  0  0  0  0  0  0  0  0  0
   38.6858    1.3783   16.0720 C   0  0  0  0  0  0  0  0  0  0  0  0
   38.2835    2.0602   17.2230 C   0  0  0  0  0  0  0  0  0  0  0  0
   37.6100    3.0539   19.5960 H   0  0  0  0  0  0  0  0  0  0  0  0
   36.9907   -1.5619   14.7122 C   0  0  0  0  0  0  0  0  0  0  0  0
   36.1443   -0.7510   15.4866 C   0  0  0  0  0  0  0  0  0  0  0  0
   35.0836   -1.3117   16.1989 C   0  0  0  0  0  0  0  0  0  0  0  0
   34.8606   -2.6906   16.1740 C   0  0  0  0  0  0  0  0  0  0  0  0
   35.7077   -3.5097   15.4036 C   0  0  0  0  0  0  0  0  0  0  0  0
   36.7627   -2.9483   14.6784 C   0  0  0  0  0  0  0  0  0  0  0  0
   33.7948   -3.2022   16.9294 O   0  0  0  0  0  0  0  0  0  0  0  0
   33.9197   -4.1497   17.9915 C   0  0  0  0  0  0  0  0  0  0  0  0
   34.6674   -3.5411   19.1845 C   0  0  0  0  0  0  0  0  0  0  0  0
   35.6303   -4.5149   19.7488 N   0  0  0  0  0  0  0  0  0  0  0  0
   36.2966   -4.0290   20.9764 C   0  0  0  0  0  0  0  0  0  0  0  0
   37.3467   -2.9519   20.6740 C   0  0  0  0  0  0  0  0  0  0  0  0
   38.3844   -3.4855   19.6850 C   0  0  0  0  0  0  0  0  0  0  0  0
   37.7070   -4.0062   18.4159 C   0  0  0  0  0  0  0  0  0  0  0  0
   36.6039   -5.0251   18.7553 C   0  0  0  0  0  0  0  0  0  0  0  0
   40.0807   -0.0766   14.3115 H   0  0  0  0  0  0  0  0  0  0  0  0
   42.5942   -3.2720   13.7778 H   0  0  0  0  0  0  0  0  0  0  0  0
   41.3009   -3.4820    9.7769 H   0  0  0  0  0  0  0  0  0  0  0  0
   39.1656   -2.5254   10.4143 H   0  0  0  0  0  0  0  0  0  0  0  0
   37.8640    0.0459   13.6648 H   0  0  0  0  0  0  0  0  0  0  0  0
   38.5786   -0.4398   19.4422 H   0  0  0  0  0  0  0  0  0  0  0  0
   39.2297   -1.6421   17.4410 H   0  0  0  0  0  0  0  0  0  0  0  0
   38.7114    1.8737   15.1670 H   0  0  0  0  0  0  0  0  0  0  0  0
   38.0051    3.0521   17.1622 H   0  0  0  0  0  0  0  0  0  0  0  0
   36.3083    0.2670   15.5289 H   0  0  0  0  0  0  0  0  0  0  0  0
   34.4582   -0.7024   16.7490 H   0  0  0  0  0  0  0  0  0  0  0  0
   35.5491   -4.5290   15.3741 H   0  0  0  0  0  0  0  0  0  0  0  0
   37.3779   -3.5556   14.1147 H   0  0  0  0  0  0  0  0  0  0  0  0
   34.4601   -5.0028   17.6379 H   0  0  0  0  0  0  0  0  0  0  0  0
   32.9393   -4.4342   18.3122 H   0  0  0  0  0  0  0  0  0  0  0  0
   33.9607   -3.2675   19.9399 H   0  0  0  0  0  0  0  0  0  0  0  0
   35.2052   -2.6785   18.8506 H   0  0  0  0  0  0  0  0  0  0  0  0
   36.7776   -4.8546   21.4580 H   0  0  0  0  0  0  0  0  0  0  0  0
   35.5497   -3.5939   21.6071 H   0  0  0  0  0  0  0  0  0  0  0  0
   37.8367   -2.6716   21.5829 H   0  0  0  0  0  0  0  0  0  0  0  0
   36.8598   -2.1021   20.2431 H   0  0  0  0  0  0  0  0  0  0  0  0
   38.9293   -4.2835   20.1446 H   0  0  0  0  0  0  0  0  0  0  0  0
   39.0462   -2.6881   19.4184 H   0  0  0  0  0  0  0  0  0  0  0  0
   38.4407   -4.4786   17.7967 H   0  0  0  0  0  0  0  0  0  0  0  0
   37.2603   -3.1790   17.9049 H   0  0  0  0  0  0  0  0  0  0  0  0
   37.0639   -5.9067   19.1503 H   0  0  0  0  0  0  0  0  0  0  0  0
   36.0650   -5.2258   17.8530 H   0  0  0  0  0  0  0  0  0  0  0  0
  1  2  1  0  0  0  0
  1 36  1  6  0  0  0
  2  3  1  0  0  0  0
  3  4  2  0  0  0  0
  4  5  1  0  0  0  0
  4 37  1  0  0  0  0
  5  6  1  0  0  0  0
  5  7  2  0  0  0  0
  6 12  1  0  0  0  0
  7  8  1  0  0  0  0
  7 38  1  0  0  0  0
  8  9  2  0  0  0  0
  8 39  1  0  0  0  0
  9 10  1  0  0  0  0
  9  3  1  0  0  0  0
 10 11  1  0  0  0  0
 11 21  1  0  0  0  0
 11  1  1  0  0  0  0
 11 40  1  6  0  0  0
 13 14  1  0  0  0  0
 13 20  1  0  0  0  0
 14 15  2  0  0  0  0
 15 16  1  0  0  0  0
 15 41  1  0  0  0  0
 16 17  2  0  0  0  0
 16 42  1  0  0  0  0
 17  1  1  0  0  0  0
 17 18  1  0  0  0  0
 18 19  2  0  0  0  0
 18 43  1  0  0  0  0
 19 14  1  0  0  0  0
 19 44  1  0  0  0  0
 21 22  2  0  0  0  0
 22 23  1  0  0  0  0
 22 45  1  0  0  0  0
 23 24  2  0  0  0  0
 23 46  1  0  0  0  0
 24 27  1  0  0  0  0
 24 25  1  0  0  0  0
 25 26  2  0  0  0  0
 25 47  1  0  0  0  0
 26 21  1  0  0  0  0
 26 48  1  0  0  0  0
 27 28  1  0  0  0  0
 28 29  1  0  0  0  0
 28 49  1  0  0  0  0
 28 50  1  0  0  0  0
 29 30  1  0  0  0  0
 29 51  1  0  0  0  0
 29 52  1  0  0  0  0
 30 31  1  0  0  0  0
 31 32  1  0  0  0  0
 31 53  1  0  0  0  0
 31 54  1  0  0  0  0
 32 33  1  0  0  0  0
 32 55  1  0  0  0  0
 32 56  1  0  0  0  0
 33 34  1  0  0  0  0
 33 57  1  0  0  0  0
 33 58  1  0  0  0  0
 34 35  1  0  0  0  0
 34 59  1  0  0  0  0
 34 60  1  0  0  0  0
 35 30  1  0  0  0  0
 35 61  1  0  0  0  0
 35 62  1  0  0  0  0
M  END
>  <minimizedAffinity>
-8.82407

$$$$
CHEMBL184679
 OpenBabel01042214213D

 59 63  0  0  0  0  0  0  0  0999 V2000
   37.2998   -2.2769   17.8375 C   0  0  1  0  0  0  0  0  0  0  0  0
   38.3629   -1.2725   16.7494 S   0  0  0  0  0  0  0  0  0  0  0  0
   37.0607   -0.1459   16.2477 C   0  0  0  0  0  0  0  0  0  0  0  0
   37.0309    0.3124   14.9256 C   0  0  0  0  0  0  0  0  0  0  0  0
   36.0716    1.2523   14.5265 C   0  0  0  0  0  0  0  0  0  0  0  0
   36.0482    1.7297   13.2169 O   0  0  0  0  0  0  0  0  0  0  0  0
   35.1417    1.7319   15.4530 C   0  0  0  0  0  0  0  0  0  0  0  0
   35.1518    1.2562   16.7665 C   0  0  0  0  0  0  0  0  0  0  0  0
   36.0910    0.2981   17.1657 C   0  0  0  0  0  0  0  0  0  0  0  0
   35.9788   -0.2500   18.4510 O   0  0  0  0  0  0  0  0  0  0  0  0
   36.7251   -1.3657   18.9580 C   0  0  1  0  0  0  0  0  0  0  0  0
   36.7094    1.4012   12.5201 H   0  0  0  0  0  0  0  0  0  0  0  0
   33.8409   -5.5209   14.6055 O   0  0  0  0  0  0  0  0  0  0  0  0
   34.6660   -4.7345   15.4077 C   0  0  0  0  0  0  0  0  0  0  0  0
   35.8913   -5.2263   15.8717 C   0  0  0  0  0  0  0  0  0  0  0  0
   36.7126   -4.4239   16.6691 C   0  0  0  0  0  0  0  0  0  0  0  0
   36.3244   -3.1163   17.0196 C   0  0  0  0  0  0  0  0  0  0  0  0
   35.0897   -2.6300   16.5396 C   0  0  0  0  0  0  0  0  0  0  0  0
   34.2672   -3.4389   15.7481 C   0  0  0  0  0  0  0  0  0  0  0  0
   34.1158   -6.4501   14.3075 H   0  0  0  0  0  0  0  0  0  0  0  0
   35.9149   -2.1449   19.9818 C   0  0  0  0  0  0  0  0  0  0  0  0
   34.5159   -2.0177   20.0686 C   0  0  0  0  0  0  0  0  0  0  0  0
   33.7943   -2.7178   21.0396 C   0  0  0  0  0  0  0  0  0  0  0  0
   34.4569   -3.5679   21.9428 C   0  0  0  0  0  0  0  0  0  0  0  0
   35.8458   -3.7072   21.8501 C   0  0  0  0  0  0  0  0  0  0  0  0
   36.5709   -2.9939   20.8913 C   0  0  0  0  0  0  0  0  0  0  0  0
   33.7811   -4.2899   22.9409 O   0  0  0  0  0  0  0  0  0  0  0  0
   32.7417   -3.7709   23.7723 C   0  0  0  0  0  0  0  0  0  0  0  0
   33.3336   -3.1680   25.0517 C   0  0  0  0  0  0  0  0  0  0  0  0
   32.4835   -2.0712   25.5567 N   0  0  0  0  0  0  0  0  0  0  0  0
   32.8647   -1.6204   26.9106 C   0  0  0  0  0  0  0  0  0  0  0  0
   31.5776   -1.3742   27.7025 C   0  0  0  0  0  0  0  0  0  0  0  0
   30.4474   -1.6187   26.7197 C   0  0  1  0  0  0  0  0  0  0  0  0
   30.0315   -0.4147   26.1704 F   0  0  0  0  0  0  0  0  0  0  0  0
   31.0775   -2.4848   25.6470 C   0  0  0  0  0  0  0  0  0  0  0  0
   37.8465   -3.0294   18.3665 H   0  0  0  0  0  0  0  0  0  0  0  0
   37.7178   -0.0432   14.2424 H   0  0  0  0  0  0  0  0  0  0  0  0
   34.4464    2.4386   15.1664 H   0  0  0  0  0  0  0  0  0  0  0  0
   34.4626    1.6133   17.4466 H   0  0  0  0  0  0  0  0  0  0  0  0
   37.5804   -0.9637   19.4598 H   0  0  0  0  0  0  0  0  0  0  0  0
   36.1891   -6.1830   15.6248 H   0  0  0  0  0  0  0  0  0  0  0  0
   37.6151   -4.7946   17.0053 H   0  0  0  0  0  0  0  0  0  0  0  0
   34.7912   -1.6704   16.7742 H   0  0  0  0  0  0  0  0  0  0  0  0
   33.3606   -3.0768   15.4136 H   0  0  0  0  0  0  0  0  0  0  0  0
   34.0175   -1.4009   19.4082 H   0  0  0  0  0  0  0  0  0  0  0  0
   32.7694   -2.6102   21.0940 H   0  0  0  0  0  0  0  0  0  0  0  0
   36.3398   -4.3428   22.4959 H   0  0  0  0  0  0  0  0  0  0  0  0
   37.5975   -3.0911   20.8503 H   0  0  0  0  0  0  0  0  0  0  0  0
   32.0702   -4.5621   24.0330 H   0  0  0  0  0  0  0  0  0  0  0  0
   32.2179   -3.0063   23.2376 H   0  0  0  0  0  0  0  0  0  0  0  0
   34.3103   -2.7858   24.8401 H   0  0  0  0  0  0  0  0  0  0  0  0
   33.3865   -3.9325   25.7984 H   0  0  0  0  0  0  0  0  0  0  0  0
   33.4313   -0.7150   26.8465 H   0  0  0  0  0  0  0  0  0  0  0  0
   33.4655   -2.3612   27.3955 H   0  0  0  0  0  0  0  0  0  0  0  0
   31.5476   -0.3679   28.0649 H   0  0  0  0  0  0  0  0  0  0  0  0
   31.5074   -2.0141   28.5572 H   0  0  0  0  0  0  0  0  0  0  0  0
   29.5917   -2.0738   27.1731 H   0  0  0  0  0  0  0  0  0  0  0  0
   30.5850   -2.3306   24.7097 H   0  0  0  0  0  0  0  0  0  0  0  0
   30.9924   -3.5242   25.8866 H   0  0  0  0  0  0  0  0  0  0  0  0
  1  2  1  0  0  0  0
  1 36  1  1  0  0  0
  2  3  1  0  0  0  0
  3  4  2  0  0  0  0
  4  5  1  0  0  0  0
  4 37  1  0  0  0  0
  5  6  1  0  0  0  0
  5  7  2  0  0  0  0
  6 12  1  0  0  0  0
  7  8  1  0  0  0  0
  7 38  1  0  0  0  0
  8  9  2  0  0  0  0
  8 39  1  0  0  0  0
  9 10  1  0  0  0  0
  9  3  1  0  0  0  0
 10 11  1  0  0  0  0
 11 21  1  0  0  0  0
 11  1  1  0  0  0  0
 11 40  1  1  0  0  0
 13 14  1  0  0  0  0
 13 20  1  0  0  0  0
 14 15  2  0  0  0  0
 15 16  1  0  0  0  0
 15 41  1  0  0  0  0
 16 17  2  0  0  0  0
 16 42  1  0  0  0  0
 17  1  1  0  0  0  0
 17 18  1  0  0  0  0
 18 19  2  0  0  0  0
 18 43  1  0  0  0  0
 19 14  1  0  0  0  0
 19 44  1  0  0  0  0
 21 22  2  0  0  0  0
 22 23  1  0  0  0  0
 22 45  1  0  0  0  0
 23 24  2  0  0  0  0
 23 46  1  0  0  0  0
 24 27  1  0  0  0  0
 24 25  1  0  0  0  0
 25 26  2  0  0  0  0
 25 47  1  0  0  0  0
 26 21  1  0  0  0  0
 26 48  1  0  0  0  0
 27 28  1  0  0  0  0
 28 29  1  0  0  0  0
 28 49  1  0  0  0  0
 28 50  1  0  0  0  0
 29 30  1  0  0  0  0
 29 51  1  0  0  0  0
 29 52  1  0  0  0  0
 30 31  1  0  0  0  0
 31 32  1  0  0  0  0
 31 53  1  0  0  0  0
 31 54  1  0  0  0  0
 32 33  1  0  0  0  0
 32 55  1  0  0  0  0
 32 56  1  0  0  0  0
 33 34  1  0  0  0  0
 33 35  1  0  0  0  0
 33 57  1  1  0  0  0
 35 30  1  0  0  0  0
 35 58  1  0  0  0  0
 35 59  1  0  0  0  0
M  END
>  <minimizedAffinity>
-8.86946

$$$$
CHEMBL304552
 OpenBabel01042214213D

 62 66  0  0  0  0  0  0  0  0999 V2000
   34.7343   -3.8161   18.7296 C   0  0  1  0  0  0  0  0  0  0  0  0
   33.8016   -3.2936   20.2129 S   0  0  0  0  0  0  0  0  0  0  0  0
   32.2723   -3.0728   19.3087 C   0  0  0  0  0  0  0  0  0  0  0  0
   31.0597   -3.4452   19.9057 C   0  0  0  0  0  0  0  0  0  0  0  0
   29.8443   -3.1705   19.2619 C   0  0  0  0  0  0  0  0  0  0  0  0
   28.6290   -3.5022   19.8575 O   0  0  0  0  0  0  0  0  0  0  0  0
   29.8466   -2.5405   18.0146 C   0  0  0  0  0  0  0  0  0  0  0  0
   31.0548   -2.1796   17.4118 C   0  0  0  0  0  0  0  0  0  0  0  0
   32.2733   -2.4603   18.0425 C   0  0  0  0  0  0  0  0  0  0  0  0
   33.4659   -2.1442   17.3741 O   0  0  0  0  0  0  0  0  0  0  0  0
   34.7641   -2.6846   17.6655 C   0  0  1  0  0  0  0  0  0  0  0  0
   28.5832   -3.9395   20.7724 H   0  0  0  0  0  0  0  0  0  0  0  0
   39.9266   -5.7673   20.1676 O   0  0  0  0  0  0  0  0  0  0  0  0
   38.6665   -5.2887   19.8178 C   0  0  0  0  0  0  0  0  0  0  0  0
   38.1545   -5.5650   18.5465 C   0  0  0  0  0  0  0  0  0  0  0  0
   36.8948   -5.0861   18.1772 C   0  0  0  0  0  0  0  0  0  0  0  0
   36.1347   -4.2984   19.0723 C   0  0  0  0  0  0  0  0  0  0  0  0
   36.6536   -4.0430   20.3533 C   0  0  0  0  0  0  0  0  0  0  0  0
   37.9055   -4.5386   20.7257 C   0  0  0  0  0  0  0  0  0  0  0  0
   40.3192   -5.5950   21.0874 H   0  0  0  0  0  0  0  0  0  0  0  0
   35.7203   -1.5595   18.0088 C   0  0  0  0  0  0  0  0  0  0  0  0
   35.3340   -0.5701   18.9283 C   0  0  0  0  0  0  0  0  0  0  0  0
   36.1948    0.4836   19.2381 C   0  0  0  0  0  0  0  0  0  0  0  0
   37.4440    0.5859   18.6210 C   0  0  0  0  0  0  0  0  0  0  0  0
   37.8358   -0.3998   17.6952 C   0  0  0  0  0  0  0  0  0  0  0  0
   36.9804   -1.4635   17.3936 C   0  0  0  0  0  0  0  0  0  0  0  0
   38.2576    1.6798   18.9518 O   0  0  0  0  0  0  0  0  0  0  0  0
   38.2007    2.9650   18.3300 C   0  0  0  0  0  0  0  0  0  0  0  0
   38.1965    2.8352   16.8017 C   0  0  0  0  0  0  0  0  0  0  0  0
   37.0449    3.5621   16.2193 N   0  0  0  0  0  0  0  0  0  0  0  0
   35.7446    2.9211   16.5118 C   0  0  0  0  0  0  0  0  0  0  0  0
   35.5346    1.6429   15.6894 C   0  0  0  0  0  0  0  0  0  0  0  0
   35.6491    1.9487   14.1951 C   0  0  0  0  0  0  0  0  0  0  0  0
   36.9840    2.6268   13.8806 C   0  0  0  0  0  0  0  0  0  0  0  0
   37.2035    3.8595   14.7765 C   0  0  0  0  0  0  0  0  0  0  0  0
   34.2178   -4.6527   18.3074 H   0  0  0  0  0  0  0  0  0  0  0  0
   31.0614   -3.9224   20.8207 H   0  0  0  0  0  0  0  0  0  0  0  0
   28.9536   -2.3412   17.5372 H   0  0  0  0  0  0  0  0  0  0  0  0
   31.0490   -1.7033   16.4963 H   0  0  0  0  0  0  0  0  0  0  0  0
   35.1279   -3.1700   16.7841 H   0  0  0  0  0  0  0  0  0  0  0  0
   38.7084   -6.1242   17.8790 H   0  0  0  0  0  0  0  0  0  0  0  0
   36.5161   -5.3091   17.2435 H   0  0  0  0  0  0  0  0  0  0  0  0
   36.1046   -3.4841   21.0251 H   0  0  0  0  0  0  0  0  0  0  0  0
   38.2715   -4.3520   21.6724 H   0  0  0  0  0  0  0  0  0  0  0  0
   34.4067   -0.6230   19.3780 H   0  0  0  0  0  0  0  0  0  0  0  0
   35.9061    1.1936   19.9292 H   0  0  0  0  0  0  0  0  0  0  0  0
   38.7585   -0.3368   17.2373 H   0  0  0  0  0  0  0  0  0  0  0  0
   37.2759   -2.1827   16.7151 H   0  0  0  0  0  0  0  0  0  0  0  0
   39.0534    3.5373   18.6304 H   0  0  0  0  0  0  0  0  0  0  0  0
   37.2974    3.4515   18.6338 H   0  0  0  0  0  0  0  0  0  0  0  0
   38.1295    1.8006   16.5370 H   0  0  0  0  0  0  0  0  0  0  0  0
   39.1011    3.2581   16.4174 H   0  0  0  0  0  0  0  0  0  0  0  0
   34.9600    3.6117   16.2829 H   0  0  0  0  0  0  0  0  0  0  0  0
   35.7347    2.6525   17.5475 H   0  0  0  0  0  0  0  0  0  0  0  0
   34.5623    1.2465   15.8951 H   0  0  0  0  0  0  0  0  0  0  0  0
   36.2855    0.9292   15.9573 H   0  0  0  0  0  0  0  0  0  0  0  0
   34.8491    2.5985   13.9076 H   0  0  0  0  0  0  0  0  0  0  0  0
   35.5950    1.0287   13.6514 H   0  0  0  0  0  0  0  0  0  0  0  0
   36.9869    2.9345   12.8558 H   0  0  0  0  0  0  0  0  0  0  0  0
   37.7725    1.9275   14.0652 H   0  0  0  0  0  0  0  0  0  0  0  0
   36.4924    4.6108   14.5030 H   0  0  0  0  0  0  0  0  0  0  0  0
   38.2103    4.1891   14.6264 H   0  0  0  0  0  0  0  0  0  0  0  0
  1  2  1  0  0  0  0
  1 36  1  6  0  0  0
  2  3  1  0  0  0  0
  3  4  2  0  0  0  0
  4  5  1  0  0  0  0
  4 37  1  0  0  0  0
  5  6  1  0  0  0  0
  5  7  2  0  0  0  0
  6 12  1  0  0  0  0
  7  8  1  0  0  0  0
  7 38  1  0  0  0  0
  8  9  2  0  0  0  0
  8 39  1  0  0  0  0
  9 10  1  0  0  0  0
  9  3  1  0  0  0  0
 10 11  1  0  0  0  0
 11 21  1  0  0  0  0
 11  1  1  0  0  0  0
 11 40  1  6  0  0  0
 13 14  1  0  0  0  0
 13 20  1  0  0  0  0
 14 15  2  0  0  0  0
 15 16  1  0  0  0  0
 15 41  1  0  0  0  0
 16 17  2  0  0  0  0
 16 42  1  0  0  0  0
 17  1  1  0  0  0  0
 17 18  1  0  0  0  0
 18 19  2  0  0  0  0
 18 43  1  0  0  0  0
 19 14  1  0  0  0  0
 19 44  1  0  0  0  0
 21 22  2  0  0  0  0
 22 23  1  0  0  0  0
 22 45  1  0  0  0  0
 23 24  2  0  0  0  0
 23 46  1  0  0  0  0
 24 27  1  0  0  0  0
 24 25  1  0  0  0  0
 25 26  2  0  0  0  0
 25 47  1  0  0  0  0
 26 21  1  0  0  0  0
 26 48  1  0  0  0  0
 27 28  1  0  0  0  0
 28 29  1  0  0  0  0
 28 49  1  0  0  0  0
 28 50  1  0  0  0  0
 29 30  1  0  0  0  0
 29 51  1  0  0  0  0
 29 52  1  0  0  0  0
 30 31  1  0  0  0  0
 31 32  1  0  0  0  0
 31 53  1  0  0  0  0
 31 54  1  0  0  0  0
 32 33  1  0  0  0  0
 32 55  1  0  0  0  0
 32 56  1  0  0  0  0
 33 34  1  0  0  0  0
 33 57  1  0  0  0  0
 33 58  1  0  0  0  0
 34 35  1  0  0  0  0
 34 59  1  0  0  0  0
 34 60  1  0  0  0  0
 35 30  1  0  0  0  0
 35 61  1  0  0  0  0
 35 62  1  0  0  0  0
M  END
>  <minimizedAffinity>
-8.92473

$$$$
CHEMBL304552
 OpenBabel01042214213D

 62 66  0  0  0  0  0  0  0  0999 V2000
   35.0212   -2.5340   16.8872 C   0  0  1  0  0  0  0  0  0  0  0  0
   34.6914   -0.7861   17.3109 S   0  0  0  0  0  0  0  0  0  0  0  0
   36.3810   -0.2786   17.0060 C   0  0  0  0  0  0  0  0  0  0  0  0
   36.6285    0.9586   16.3949 C   0  0  0  0  0  0  0  0  0  0  0  0
   37.9440    1.4249   16.2563 C   0  0  0  0  0  0  0  0  0  0  0  0
   38.2050    2.6679   15.6832 O   0  0  0  0  0  0  0  0  0  0  0  0
   39.0088    0.6436   16.7128 C   0  0  0  0  0  0  0  0  0  0  0  0
   38.7653   -0.5958   17.3110 C   0  0  0  0  0  0  0  0  0  0  0  0
   37.4555   -1.0739   17.4432 C   0  0  0  0  0  0  0  0  0  0  0  0
   37.2572   -2.3523   17.9867 O   0  0  0  0  0  0  0  0  0  0  0  0
   36.0711   -3.1506   17.8522 C   0  0  1  0  0  0  0  0  0  0  0  0
   37.4589    3.2756   15.3601 H   0  0  0  0  0  0  0  0  0  0  0  0
   30.3127   -5.7995   16.8555 O   0  0  0  0  0  0  0  0  0  0  0  0
   31.4565   -5.0052   16.8585 C   0  0  0  0  0  0  0  0  0  0  0  0
   31.4003   -3.7206   17.4074 C   0  0  0  0  0  0  0  0  0  0  0  0
   32.5372   -2.9082   17.4119 C   0  0  0  0  0  0  0  0  0  0  0  0
   33.7483   -3.3638   16.8416 C   0  0  0  0  0  0  0  0  0  0  0  0
   33.7958   -4.6636   16.3091 C   0  0  0  0  0  0  0  0  0  0  0  0
   32.6622   -5.4800   16.3227 C   0  0  0  0  0  0  0  0  0  0  0  0
   30.3258   -6.7410   16.4769 H   0  0  0  0  0  0  0  0  0  0  0  0
   35.5129   -3.4712   19.2247 C   0  0  0  0  0  0  0  0  0  0  0  0
   35.0787   -2.4310   20.0631 C   0  0  0  0  0  0  0  0  0  0  0  0
   34.5827   -2.7088   21.3374 C   0  0  0  0  0  0  0  0  0  0  0  0
   34.5329   -4.0224   21.8100 C   0  0  0  0  0  0  0  0  0  0  0  0
   34.9706   -5.0695   20.9768 C   0  0  0  0  0  0  0  0  0  0  0  0
   35.4552   -4.7945   19.6947 C   0  0  0  0  0  0  0  0  0  0  0  0
   34.0484   -4.2405   23.1085 O   0  0  0  0  0  0  0  0  0  0  0  0
   32.8293   -3.7095   23.6314 C   0  0  0  0  0  0  0  0  0  0  0  0
   33.0150   -3.2303   25.0766 C   0  0  0  0  0  0  0  0  0  0  0  0
   32.6016   -1.8147   25.2141 N   0  0  0  0  0  0  0  0  0  0  0  0
   33.2791   -1.1168   26.3282 C   0  0  0  0  0  0  0  0  0  0  0  0
   32.7386   -1.5547   27.6958 C   0  0  0  0  0  0  0  0  0  0  0  0
   31.2282   -1.3242   27.7680 C   0  0  0  0  0  0  0  0  0  0  0  0
   30.5159   -2.0282   26.6114 C   0  0  0  0  0  0  0  0  0  0  0  0
   31.1321   -1.6308   25.2576 C   0  0  0  0  0  0  0  0  0  0  0  0
   35.4317   -2.5498   15.8992 H   0  0  0  0  0  0  0  0  0  0  0  0
   35.8411    1.5274   16.0463 H   0  0  0  0  0  0  0  0  0  0  0  0
   39.9778    0.9828   16.6079 H   0  0  0  0  0  0  0  0  0  0  0  0
   39.5554   -1.1622   17.6574 H   0  0  0  0  0  0  0  0  0  0  0  0
   36.3423   -4.0727   17.3821 H   0  0  0  0  0  0  0  0  0  0  0  0
   30.5167   -3.3714   17.8104 H   0  0  0  0  0  0  0  0  0  0  0  0
   32.4926   -1.9679   17.8349 H   0  0  0  0  0  0  0  0  0  0  0  0
   34.6763   -5.0183   15.9043 H   0  0  0  0  0  0  0  0  0  0  0  0
   32.7124   -6.4359   15.9370 H   0  0  0  0  0  0  0  0  0  0  0  0
   35.1269   -1.4540   19.7341 H   0  0  0  0  0  0  0  0  0  0  0  0
   34.2497   -1.9369   21.9360 H   0  0  0  0  0  0  0  0  0  0  0  0
   34.9335   -6.0442   21.3140 H   0  0  0  0  0  0  0  0  0  0  0  0
   35.7725   -5.5679   19.0896 H   0  0  0  0  0  0  0  0  0  0  0  0
   32.0777   -4.4707   23.6088 H   0  0  0  0  0  0  0  0  0  0  0  0
   32.5349   -2.8748   23.0302 H   0  0  0  0  0  0  0  0  0  0  0  0
   34.0458   -3.3235   25.3482 H   0  0  0  0  0  0  0  0  0  0  0  0
   32.4067   -3.8312   25.7199 H   0  0  0  0  0  0  0  0  0  0  0  0
   33.1279   -0.0632   26.2185 H   0  0  0  0  0  0  0  0  0  0  0  0
   34.3191   -1.3653   26.2894 H   0  0  0  0  0  0  0  0  0  0  0  0
   33.2196   -0.9861   28.4640 H   0  0  0  0  0  0  0  0  0  0  0  0
   32.9386   -2.5970   27.8317 H   0  0  0  0  0  0  0  0  0  0  0  0
   31.0306   -0.2740   27.7146 H   0  0  0  0  0  0  0  0  0  0  0  0
   30.8635   -1.7251   28.6906 H   0  0  0  0  0  0  0  0  0  0  0  0
   29.4817   -1.7537   26.6188 H   0  0  0  0  0  0  0  0  0  0  0  0
   30.6251   -3.0851   26.7376 H   0  0  0  0  0  0  0  0  0  0  0  0
   30.9118   -0.6003   25.0721 H   0  0  0  0  0  0  0  0  0  0  0  0
   30.7073   -2.2705   24.5125 H   0  0  0  0  0  0  0  0  0  0  0  0
  1  2  1  0  0  0  0
  1 36  1  6  0  0  0
  2  3  1  0  0  0  0
  3  4  2  0  0  0  0
  4  5  1  0  0  0  0
  4 37  1  0  0  0  0
  5  6  1  0  0  0  0
  5  7  2  0  0  0  0
  6 12  1  0  0  0  0
  7  8  1  0  0  0  0
  7 38  1  0  0  0  0
  8  9  2  0  0  0  0
  8 39  1  0  0  0  0
  9 10  1  0  0  0  0
  9  3  1  0  0  0  0
 10 11  1  0  0  0  0
 11 21  1  0  0  0  0
 11  1  1  0  0  0  0
 11 40  1  6  0  0  0
 13 14  1  0  0  0  0
 13 20  1  0  0  0  0
 14 15  2  0  0  0  0
 15 16  1  0  0  0  0
 15 41  1  0  0  0  0
 16 17  2  0  0  0  0
 16 42  1  0  0  0  0
 17  1  1  0  0  0  0
 17 18  1  0  0  0  0
 18 19  2  0  0  0  0
 18 43  1  0  0  0  0
 19 14  1  0  0  0  0
 19 44  1  0  0  0  0
 21 22  2  0  0  0  0
 22 23  1  0  0  0  0
 22 45  1  0  0  0  0
 23 24  2  0  0  0  0
 23 46  1  0  0  0  0
 24 27  1  0  0  0  0
 24 25  1  0  0  0  0
 25 26  2  0  0  0  0
 25 47  1  0  0  0  0
 26 21  1  0  0  0  0
 26 48  1  0  0  0  0
 27 28  1  0  0  0  0
 28 29  1  0  0  0  0
 28 49  1  0  0  0  0
 28 50  1  0  0  0  0
 29 30  1  0  0  0  0
 29 51  1  0  0  0  0
 29 52  1  0  0  0  0
 30 31  1  0  0  0  0
 31 32  1  0  0  0  0
 31 53  1  0  0  0  0
 31 54  1  0  0  0  0
 32 33  1  0  0  0  0
 32 55  1  0  0  0  0
 32 56  1  0  0  0  0
 33 34  1  0  0  0  0
 33 57  1  0  0  0  0
 33 58  1  0  0  0  0
 34 35  1  0  0  0  0
 34 59  1  0  0  0  0
 34 60  1  0  0  0  0
 35 30  1  0  0  0  0
 35 61  1  0  0  0  0
 35 62  1  0  0  0  0
M  END
>  <minimizedAffinity>
-8.93881

$$$$
CHEMBL184679
 OpenBabel01042214213D

 59 63  0  0  0  0  0  0  0  0999 V2000
   35.3897   -2.7358   17.6859 C   0  0  1  0  0  0  0  0  0  0  0  0
   34.4648   -1.1773   17.9042 S   0  0  0  0  0  0  0  0  0  0  0  0
   35.9370   -0.1516   17.8965 C   0  0  0  0  0  0  0  0  0  0  0  0
   35.8705    1.1154   17.3034 C   0  0  0  0  0  0  0  0  0  0  0  0
   36.9689    1.9787   17.3549 C   0  0  0  0  0  0  0  0  0  0  0  0
   36.8799    3.2411   16.7724 O   0  0  0  0  0  0  0  0  0  0  0  0
   38.1440    1.5700   17.9974 C   0  0  0  0  0  0  0  0  0  0  0  0
   38.2243    0.2970   18.5679 C   0  0  0  0  0  0  0  0  0  0  0  0
   37.1348   -0.5794   18.5048 C   0  0  0  0  0  0  0  0  0  0  0  0
   37.2975   -1.8799   19.0076 O   0  0  0  0  0  0  0  0  0  0  0  0
   36.3612   -2.9566   18.8724 C   0  0  1  0  0  0  0  0  0  0  0  0
   37.6529    3.8944   16.8058 H   0  0  0  0  0  0  0  0  0  0  0  0
   31.8376   -7.1250   16.7253 O   0  0  0  0  0  0  0  0  0  0  0  0
   32.7137   -6.0703   16.9715 C   0  0  0  0  0  0  0  0  0  0  0  0
   32.2235   -4.7624   17.0206 C   0  0  0  0  0  0  0  0  0  0  0  0
   33.0910   -3.6938   17.2651 C   0  0  0  0  0  0  0  0  0  0  0  0
   34.4624   -3.9202   17.4775 C   0  0  0  0  0  0  0  0  0  0  0  0
   34.9499   -5.2415   17.4117 C   0  0  0  0  0  0  0  0  0  0  0  0
   34.0800   -6.3071   17.1656 C   0  0  0  0  0  0  0  0  0  0  0  0
   32.1623   -8.0841   16.6827 H   0  0  0  0  0  0  0  0  0  0  0  0
   35.6603   -3.2119   20.1947 C   0  0  0  0  0  0  0  0  0  0  0  0
   36.1888   -4.1543   21.0941 C   0  0  0  0  0  0  0  0  0  0  0  0
   35.5348   -4.4355   22.2963 C   0  0  0  0  0  0  0  0  0  0  0  0
   34.3366   -3.7746   22.6232 C   0  0  0  0  0  0  0  0  0  0  0  0
   33.8137   -2.8310   21.7330 C   0  0  0  0  0  0  0  0  0  0  0  0
   34.4664   -2.5490   20.5302 C   0  0  0  0  0  0  0  0  0  0  0  0
   33.6391   -4.0259   23.8133 O   0  0  0  0  0  0  0  0  0  0  0  0
   32.5076   -3.2805   24.2570 C   0  0  0  0  0  0  0  0  0  0  0  0
   32.5831   -3.0753   25.7698 C   0  0  0  0  0  0  0  0  0  0  0  0
   33.2234   -1.7867   26.1006 N   0  0  0  0  0  0  0  0  0  0  0  0
   33.1837   -1.4812   27.5361 C   0  0  0  0  0  0  0  0  0  0  0  0
   33.1851    0.0359   27.6685 C   0  0  0  0  0  0  0  0  0  0  0  0
   32.8371    0.5667   26.2857 C   0  0  1  0  0  0  0  0  0  0  0  0
   33.9177    1.2511   25.7508 F   0  0  0  0  0  0  0  0  0  0  0  0
   32.5373   -0.6678   25.4513 C   0  0  0  0  0  0  0  0  0  0  0  0
   35.9744   -2.6539   16.7936 H   0  0  0  0  0  0  0  0  0  0  0  0
   35.0057    1.4134   16.8256 H   0  0  0  0  0  0  0  0  0  0  0  0
   38.9520    2.2099   18.0497 H   0  0  0  0  0  0  0  0  0  0  0  0
   39.0933    0.0008   19.0392 H   0  0  0  0  0  0  0  0  0  0  0  0
   36.8971   -3.8496   18.6269 H   0  0  0  0  0  0  0  0  0  0  0  0
   31.2173   -4.5848   16.8758 H   0  0  0  0  0  0  0  0  0  0  0  0
   32.7217   -2.7305   17.2899 H   0  0  0  0  0  0  0  0  0  0  0  0
   35.9568   -5.4231   17.5463 H   0  0  0  0  0  0  0  0  0  0  0  0
   34.4457   -7.2714   17.1268 H   0  0  0  0  0  0  0  0  0  0  0  0
   37.0682   -4.6430   20.8642 H   0  0  0  0  0  0  0  0  0  0  0  0
   35.9323   -5.1308   22.9471 H   0  0  0  0  0  0  0  0  0  0  0  0
   32.9375   -2.3384   21.9668 H   0  0  0  0  0  0  0  0  0  0  0  0
   34.0696   -1.8494   19.8836 H   0  0  0  0  0  0  0  0  0  0  0  0
   31.6130   -3.8154   24.0154 H   0  0  0  0  0  0  0  0  0  0  0  0
   32.5002   -2.3271   23.7713 H   0  0  0  0  0  0  0  0  0  0  0  0
   33.1540   -3.8703   26.2021 H   0  0  0  0  0  0  0  0  0  0  0  0
   31.5876   -3.0705   26.1620 H   0  0  0  0  0  0  0  0  0  0  0  0
   34.0425   -1.8934   28.0234 H   0  0  0  0  0  0  0  0  0  0  0  0
   32.3130   -1.9036   27.9925 H   0  0  0  0  0  0  0  0  0  0  0  0
   34.1510    0.3838   27.9701 H   0  0  0  0  0  0  0  0  0  0  0  0
   32.4878    0.3698   28.4082 H   0  0  0  0  0  0  0  0  0  0  0  0
   32.0112    1.2465   26.3121 H   0  0  0  0  0  0  0  0  0  0  0  0
   32.9040   -0.5379   24.4545 H   0  0  0  0  0  0  0  0  0  0  0  0
   31.4840   -0.8448   25.3878 H   0  0  0  0  0  0  0  0  0  0  0  0
  1  2  1  0  0  0  0
  1 36  1  6  0  0  0
  2  3  1  0  0  0  0
  3  4  2  0  0  0  0
  4  5  1  0  0  0  0
  4 37  1  0  0  0  0
  5  6  1  0  0  0  0
  5  7  2  0  0  0  0
  6 12  1  0  0  0  0
  7  8  1  0  0  0  0
  7 38  1  0  0  0  0
  8  9  2  0  0  0  0
  8 39  1  0  0  0  0
  9 10  1  0  0  0  0
  9  3  1  0  0  0  0
 10 11  1  0  0  0  0
 11 21  1  0  0  0  0
 11  1  1  0  0  0  0
 11 40  1  6  0  0  0
 13 14  1  0  0  0  0
 13 20  1  0  0  0  0
 14 15  2  0  0  0  0
 15 16  1  0  0  0  0
 15 41  1  0  0  0  0
 16 17  2  0  0  0  0
 16 42  1  0  0  0  0
 17  1  1  0  0  0  0
 17 18  1  0  0  0  0
 18 19  2  0  0  0  0
 18 43  1  0  0  0  0
 19 14  1  0  0  0  0
 19 44  1  0  0  0  0
 21 22  2  0  0  0  0
 22 23  1  0  0  0  0
 22 45  1  0  0  0  0
 23 24  2  0  0  0  0
 23 46  1  0  0  0  0
 24 27  1  0  0  0  0
 24 25  1  0  0  0  0
 25 26  2  0  0  0  0
 25 47  1  0  0  0  0
 26 21  1  0  0  0  0
 26 48  1  0  0  0  0
 27 28  1  0  0  0  0
 28 29  1  0  0  0  0
 28 49  1  0  0  0  0
 28 50  1  0  0  0  0
 29 30  1  0  0  0  0
 29 51  1  0  0  0  0
 29 52  1  0  0  0  0
 30 31  1  0  0  0  0
 31 32  1  0  0  0  0
 31 53  1  0  0  0  0
 31 54  1  0  0  0  0
 32 33  1  0  0  0  0
 32 55  1  0  0  0  0
 32 56  1  0  0  0  0
 33 34  1  0  0  0  0
 33 35  1  0  0  0  0
 33 57  1  1  0  0  0
 35 30  1  0  0  0  0
 35 58  1  0  0  0  0
 35 59  1  0  0  0  0
M  END
>  <minimizedAffinity>
-8.95808

$$$$
CHEMBL185114
 OpenBabel01042214213D

 60 64  0  0  0  0  0  0  0  0999 V2000
   37.7830   -1.4682   17.7513 C   0  0  1  0  0  0  0  0  0  0  0  0
   38.7113   -0.2233   16.7992 S   0  0  0  0  0  0  0  0  0  0  0  0
   37.2607    0.6650   16.2469 C   0  0  0  0  0  0  0  0  0  0  0  0
   37.2289    1.1708   14.9427 C   0  0  0  0  0  0  0  0  0  0  0  0
   36.1409    1.9317   14.5066 C   0  0  0  0  0  0  0  0  0  0  0  0
   36.1280    2.4335   13.2090 O   0  0  0  0  0  0  0  0  0  0  0  0
   35.0799    2.1896   15.3834 C   0  0  0  0  0  0  0  0  0  0  0  0
   35.0975    1.6640   16.6778 C   0  0  0  0  0  0  0  0  0  0  0  0
   36.1720    0.8779   17.1084 C   0  0  0  0  0  0  0  0  0  0  0  0
   36.0840    0.2544   18.3597 O   0  0  0  0  0  0  0  0  0  0  0  0
   36.9637   -0.7602   18.8660 C   0  0  1  0  0  0  0  0  0  0  0  0
   35.3457    2.9735   12.8568 H   0  0  0  0  0  0  0  0  0  0  0  0
   35.1466   -5.1908   14.2776 O   0  0  0  0  0  0  0  0  0  0  0  0
   35.7826   -4.2801   15.1173 C   0  0  0  0  0  0  0  0  0  0  0  0
   37.0126   -4.5888   15.6987 C   0  0  0  0  0  0  0  0  0  0  0  0
   37.6375   -3.6707   16.5443 C   0  0  0  0  0  0  0  0  0  0  0  0
   37.0391   -2.4296   16.8311 C   0  0  0  0  0  0  0  0  0  0  0  0
   35.8066   -2.1237   16.2253 C   0  0  0  0  0  0  0  0  0  0  0  0
   35.1856   -3.0464   15.3812 C   0  0  0  0  0  0  0  0  0  0  0  0
   35.5561   -6.0910   14.0605 H   0  0  0  0  0  0  0  0  0  0  0  0
   36.2058   -1.7511   19.7380 C   0  0  0  0  0  0  0  0  0  0  0  0
   36.8785   -2.7183   20.5121 C   0  0  0  0  0  0  0  0  0  0  0  0
   36.1660   -3.6120   21.3154 C   0  0  0  0  0  0  0  0  0  0  0  0
   34.7591   -3.5605   21.3591 C   0  0  0  0  0  0  0  0  0  0  0  0
   34.0879   -2.6087   20.5848 C   0  0  0  0  0  0  0  0  0  0  0  0
   34.8005   -1.7220   19.7743 C   0  0  0  0  0  0  0  0  0  0  0  0
   33.9919   -4.4257   22.1552 O   0  0  0  0  0  0  0  0  0  0  0  0
   32.8177   -4.0626   22.8809 C   0  0  0  0  0  0  0  0  0  0  0  0
   33.1582   -3.0389   23.9671 C   0  0  0  0  0  0  0  0  0  0  0  0
   31.9401   -2.4051   24.5066 N   0  0  0  0  0  0  0  0  0  0  0  0
   32.0828   -0.9444   24.5899 C   0  0  0  0  0  0  0  0  0  0  0  0
   31.4376   -0.4792   25.8908 C   0  0  0  0  0  0  0  0  0  0  0  0
   30.8521   -1.7261   26.5248 C   0  0  1  0  0  0  0  0  0  0  0  0
   29.4886   -1.8361   26.2126 O   0  0  0  0  0  0  0  0  0  0  0  0
   31.6176   -2.8559   25.8651 C   0  0  0  0  0  0  0  0  0  0  0  0
   29.0043   -1.2746   26.8680 H   0  0  0  0  0  0  0  0  0  0  0  0
   38.4383   -2.1273   18.2815 H   0  0  0  0  0  0  0  0  0  0  0  0
   38.0132    0.9809   14.2993 H   0  0  0  0  0  0  0  0  0  0  0  0
   34.2840    2.7686   15.0731 H   0  0  0  0  0  0  0  0  0  0  0  0
   34.3132    1.8567   17.3203 H   0  0  0  0  0  0  0  0  0  0  0  0
   37.6860   -0.2656   19.4812 H   0  0  0  0  0  0  0  0  0  0  0  0
   37.4612   -5.4974   15.5033 H   0  0  0  0  0  0  0  0  0  0  0  0
   38.5504   -3.9051   16.9647 H   0  0  0  0  0  0  0  0  0  0  0  0
   35.3588   -1.2116   16.4060 H   0  0  0  0  0  0  0  0  0  0  0  0
   34.2777   -2.8143   14.9489 H   0  0  0  0  0  0  0  0  0  0  0  0
   37.9090   -2.7667   20.4851 H   0  0  0  0  0  0  0  0  0  0  0  0
   36.6724   -4.3126   21.8790 H   0  0  0  0  0  0  0  0  0  0  0  0
   33.0574   -2.5611   20.6125 H   0  0  0  0  0  0  0  0  0  0  0  0
   34.2895   -1.0374   19.1953 H   0  0  0  0  0  0  0  0  0  0  0  0
   32.4010   -4.9360   23.3375 H   0  0  0  0  0  0  0  0  0  0  0  0
   32.1110   -3.6294   22.2043 H   0  0  0  0  0  0  0  0  0  0  0  0
   33.7884   -2.2825   23.5480 H   0  0  0  0  0  0  0  0  0  0  0  0
   33.6568   -3.5470   24.7659 H   0  0  0  0  0  0  0  0  0  0  0  0
   31.5932   -0.4840   23.7573 H   0  0  0  0  0  0  0  0  0  0  0  0
   33.1171   -0.6711   24.5705 H   0  0  0  0  0  0  0  0  0  0  0  0
   30.6666    0.2352   25.6906 H   0  0  0  0  0  0  0  0  0  0  0  0
   32.1461   -0.0027   26.5357 H   0  0  0  0  0  0  0  0  0  0  0  0
   30.9321   -1.7246   27.5918 H   0  0  0  0  0  0  0  0  0  0  0  0
   31.0141   -3.7387   25.8278 H   0  0  0  0  0  0  0  0  0  0  0  0
   32.5047   -3.0936   26.4140 H   0  0  0  0  0  0  0  0  0  0  0  0
  1  2  1  0  0  0  0
  1 37  1  1  0  0  0
  2  3  1  0  0  0  0
  3  4  2  0  0  0  0
  4  5  1  0  0  0  0
  4 38  1  0  0  0  0
  5  6  1  0  0  0  0
  5  7  2  0  0  0  0
  6 12  1  0  0  0  0
  7  8  1  0  0  0  0
  7 39  1  0  0  0  0
  8  9  2  0  0  0  0
  8 40  1  0  0  0  0
  9 10  1  0  0  0  0
  9  3  1  0  0  0  0
 10 11  1  0  0  0  0
 11 21  1  0  0  0  0
 11  1  1  0  0  0  0
 11 41  1  1  0  0  0
 13 14  1  0  0  0  0
 13 20  1  0  0  0  0
 14 15  2  0  0  0  0
 15 16  1  0  0  0  0
 15 42  1  0  0  0  0
 16 17  2  0  0  0  0
 16 43  1  0  0  0  0
 17  1  1  0  0  0  0
 17 18  1  0  0  0  0
 18 19  2  0  0  0  0
 18 44  1  0  0  0  0
 19 14  1  0  0  0  0
 19 45  1  0  0  0  0
 21 22  2  0  0  0  0
 22 23  1  0  0  0  0
 22 46  1  0  0  0  0
 23 24  2  0  0  0  0
 23 47  1  0  0  0  0
 24 27  1  0  0  0  0
 24 25  1  0  0  0  0
 25 26  2  0  0  0  0
 25 48  1  0  0  0  0
 26 21  1  0  0  0  0
 26 49  1  0  0  0  0
 27 28  1  0  0  0  0
 28 29  1  0  0  0  0
 28 50  1  0  0  0  0
 28 51  1  0  0  0  0
 29 30  1  0  0  0  0
 29 52  1  0  0  0  0
 29 53  1  0  0  0  0
 30 31  1  0  0  0  0
 31 32  1  0  0  0  0
 31 54  1  0  0  0  0
 31 55  1  0  0  0  0
 32 33  1  0  0  0  0
 32 56  1  0  0  0  0
 32 57  1  0  0  0  0
 33 34  1  0  0  0  0
 33 35  1  0  0  0  0
 33 58  1  1  0  0  0
 34 36  1  0  0  0  0
 35 30  1  0  0  0  0
 35 59  1  0  0  0  0
 35 60  1  0  0  0  0
M  END
>  <minimizedAffinity>
-8.98269

$$$$
CHEMBL304552
 OpenBabel01042214213D

 62 66  0  0  0  0  0  0  0  0999 V2000
   39.3039   -0.7180   14.7725 C   0  0  1  0  0  0  0  0  0  0  0  0
   40.1928   -2.2714   15.1317 S   0  0  0  0  0  0  0  0  0  0  0  0
   40.6120   -2.5647   13.4137 C   0  0  0  0  0  0  0  0  0  0  0  0
   41.8614   -3.1129   13.1041 C   0  0  0  0  0  0  0  0  0  0  0  0
   42.1738   -3.4580   11.7820 C   0  0  0  0  0  0  0  0  0  0  0  0
   43.4068   -4.0295   11.4699 O   0  0  0  0  0  0  0  0  0  0  0  0
   41.2342   -3.2416   10.7683 C   0  0  0  0  0  0  0  0  0  0  0  0
   39.9958   -2.6660   11.0687 C   0  0  0  0  0  0  0  0  0  0  0  0
   39.6860   -2.3004   12.3844 C   0  0  0  0  0  0  0  0  0  0  0  0
   38.4737   -1.6344   12.6228 O   0  0  0  0  0  0  0  0  0  0  0  0
   38.0917   -0.9913   13.8460 C   0  0  1  0  0  0  0  0  0  0  0  0
   44.0875   -4.2451   12.1897 H   0  0  0  0  0  0  0  0  0  0  0  0
   37.8895    2.0009   19.6129 O   0  0  0  0  0  0  0  0  0  0  0  0
   38.2314    1.3371   18.4380 C   0  0  0  0  0  0  0  0  0  0  0  0
   38.6502   -0.0007   18.4685 C   0  0  0  0  0  0  0  0  0  0  0  0
   38.9892   -0.6574   17.2814 C   0  0  0  0  0  0  0  0  0  0  0  0
   38.9007    0.0090   16.0443 C   0  0  0  0  0  0  0  0  0  0  0  0
   38.5000    1.3614   16.0291 C   0  0  0  0  0  0  0  0  0  0  0  0
   38.1603    2.0149   17.2177 C   0  0  0  0  0  0  0  0  0  0  0  0
   37.9385    1.5394   20.5103 H   0  0  0  0  0  0  0  0  0  0  0  0
   36.9751   -1.7724   14.5143 C   0  0  0  0  0  0  0  0  0  0  0  0
   36.8048   -3.1377   14.2220 C   0  0  0  0  0  0  0  0  0  0  0  0
   35.7657   -3.8652   14.8070 C   0  0  0  0  0  0  0  0  0  0  0  0
   34.8766   -3.2390   15.7049 C   0  0  0  0  0  0  0  0  0  0  0  0
   35.0446   -1.8792   15.9938 C   0  0  0  0  0  0  0  0  0  0  0  0
   36.0846   -1.1511   15.4099 C   0  0  0  0  0  0  0  0  0  0  0  0
   33.8145   -3.9195   16.3248 O   0  0  0  0  0  0  0  0  0  0  0  0
   33.1022   -3.4715   17.4788 C   0  0  0  0  0  0  0  0  0  0  0  0
   33.4572   -4.3235   18.7011 C   0  0  0  0  0  0  0  0  0  0  0  0
   34.6777   -3.7969   19.3540 N   0  0  0  0  0  0  0  0  0  0  0  0
   34.6371   -2.3224   19.4472 C   0  0  0  0  0  0  0  0  0  0  0  0
   35.9537   -1.7521   20.0130 C   0  0  0  0  0  0  0  0  0  0  0  0
   36.8868   -2.8439   20.5466 C   0  0  0  0  0  0  0  0  0  0  0  0
   36.1142   -3.8475   21.4082 C   0  0  0  0  0  0  0  0  0  0  0  0
   34.8540   -4.3888   20.6971 C   0  0  0  0  0  0  0  0  0  0  0  0
   39.9721   -0.0637   14.2526 H   0  0  0  0  0  0  0  0  0  0  0  0
   42.5559   -3.2638   13.8523 H   0  0  0  0  0  0  0  0  0  0  0  0
   41.4557   -3.5075    9.7961 H   0  0  0  0  0  0  0  0  0  0  0  0
   39.3065   -2.5098   10.3167 H   0  0  0  0  0  0  0  0  0  0  0  0
   37.7055   -0.0199   13.6177 H   0  0  0  0  0  0  0  0  0  0  0  0
   38.7084   -0.5017   19.3689 H   0  0  0  0  0  0  0  0  0  0  0  0
   39.3069   -1.6388   17.3123 H   0  0  0  0  0  0  0  0  0  0  0  0
   38.4572    1.8726   15.1336 H   0  0  0  0  0  0  0  0  0  0  0  0
   37.8561    3.0008   17.1939 H   0  0  0  0  0  0  0  0  0  0  0  0
   37.4531   -3.6060   13.5697 H   0  0  0  0  0  0  0  0  0  0  0  0
   35.6481   -4.8653   14.5811 H   0  0  0  0  0  0  0  0  0  0  0  0
   34.3944   -1.4105   16.6439 H   0  0  0  0  0  0  0  0  0  0  0  0
   36.2005   -0.1511   15.6369 H   0  0  0  0  0  0  0  0  0  0  0  0
   32.0511   -3.5453   17.2929 H   0  0  0  0  0  0  0  0  0  0  0  0
   33.3746   -2.4560   17.6775 H   0  0  0  0  0  0  0  0  0  0  0  0
   33.6299   -5.3327   18.3904 H   0  0  0  0  0  0  0  0  0  0  0  0
   32.6460   -4.2897   19.3980 H   0  0  0  0  0  0  0  0  0  0  0  0
   33.8307   -2.0373   20.0901 H   0  0  0  0  0  0  0  0  0  0  0  0
   34.4983   -1.9288   18.4620 H   0  0  0  0  0  0  0  0  0  0  0  0
   35.7206   -1.0797   20.8120 H   0  0  0  0  0  0  0  0  0  0  0  0
   36.4613   -1.2538   19.2137 H   0  0  0  0  0  0  0  0  0  0  0  0
   37.6540   -2.3908   21.1390 H   0  0  0  0  0  0  0  0  0  0  0  0
   37.3156   -3.3643   19.7158 H   0  0  0  0  0  0  0  0  0  0  0  0
   35.8158   -3.3637   22.3147 H   0  0  0  0  0  0  0  0  0  0  0  0
   36.7614   -4.6776   21.6007 H   0  0  0  0  0  0  0  0  0  0  0  0
   33.9954   -4.1569   21.2920 H   0  0  0  0  0  0  0  0  0  0  0  0
   34.9698   -5.4460   20.5794 H   0  0  0  0  0  0  0  0  0  0  0  0
  1  2  1  0  0  0  0
  1 36  1  6  0  0  0
  2  3  1  0  0  0  0
  3  4  2  0  0  0  0
  4  5  1  0  0  0  0
  4 37  1  0  0  0  0
  5  6  1  0  0  0  0
  5  7  2  0  0  0  0
  6 12  1  0  0  0  0
  7  8  1  0  0  0  0
  7 38  1  0  0  0  0
  8  9  2  0  0  0  0
  8 39  1  0  0  0  0
  9 10  1  0  0  0  0
  9  3  1  0  0  0  0
 10 11  1  0  0  0  0
 11 21  1  0  0  0  0
 11  1  1  0  0  0  0
 11 40  1  6  0  0  0
 13 14  1  0  0  0  0
 13 20  1  0  0  0  0
 14 15  2  0  0  0  0
 15 16  1  0  0  0  0
 15 41  1  0  0  0  0
 16 17  2  0  0  0  0
 16 42  1  0  0  0  0
 17  1  1  0  0  0  0
 17 18  1  0  0  0  0
 18 19  2  0  0  0  0
 18 43  1  0  0  0  0
 19 14  1  0  0  0  0
 19 44  1  0  0  0  0
 21 22  2  0  0  0  0
 22 23  1  0  0  0  0
 22 45  1  0  0  0  0
 23 24  2  0  0  0  0
 23 46  1  0  0  0  0
 24 27  1  0  0  0  0
 24 25  1  0  0  0  0
 25 26  2  0  0  0  0
 25 47  1  0  0  0  0
 26 21  1  0  0  0  0
 26 48  1  0  0  0  0
 27 28  1  0  0  0  0
 28 29  1  0  0  0  0
 28 49  1  0  0  0  0
 28 50  1  0  0  0  0
 29 30  1  0  0  0  0
 29 51  1  0  0  0  0
 29 52  1  0  0  0  0
 30 31  1  0  0  0  0
 31 32  1  0  0  0  0
 31 53  1  0  0  0  0
 31 54  1  0  0  0  0
 32 33  1  0  0  0  0
 32 55  1  0  0  0  0
 32 56  1  0  0  0  0
 33 34  1  0  0  0  0
 33 57  1  0  0  0  0
 33 58  1  0  0  0  0
 34 35  1  0  0  0  0
 34 59  1  0  0  0  0
 34 60  1  0  0  0  0
 35 30  1  0  0  0  0
 35 61  1  0  0  0  0
 35 62  1  0  0  0  0
M  END
>  <minimizedAffinity>
-9.09087

$$$$
CHEMBL184679
 OpenBabel01042214213D

 59 63  0  0  0  0  0  0  0  0999 V2000
   36.6712   -2.7270   17.7179 C   0  0  1  0  0  0  0  0  0  0  0  0
   35.2573   -1.6193   17.3921 S   0  0  0  0  0  0  0  0  0  0  0  0
   36.2132   -0.1187   17.6237 C   0  0  0  0  0  0  0  0  0  0  0  0
   35.9208    0.9946   16.8258 C   0  0  0  0  0  0  0  0  0  0  0  0
   36.5822    2.2082   17.0356 C   0  0  0  0  0  0  0  0  0  0  0  0
   36.2679    3.3093   16.2422 O   0  0  0  0  0  0  0  0  0  0  0  0
   37.5476    2.3076   18.0450 C   0  0  0  0  0  0  0  0  0  0  0  0
   37.8617    1.1927   18.8264 C   0  0  0  0  0  0  0  0  0  0  0  0
   37.2164   -0.0304   18.6105 C   0  0  0  0  0  0  0  0  0  0  0  0
   37.6347   -1.1437   19.3562 O   0  0  0  0  0  0  0  0  0  0  0  0
   37.2157   -2.4988   19.1502 C   0  0  1  0  0  0  0  0  0  0  0  0
   36.7189    4.2056   16.3791 H   0  0  0  0  0  0  0  0  0  0  0  0
   35.4116   -8.2605   16.9440 O   0  0  0  0  0  0  0  0  0  0  0  0
   35.7027   -6.9094   17.1177 C   0  0  0  0  0  0  0  0  0  0  0  0
   37.0113   -6.5172   17.4129 C   0  0  0  0  0  0  0  0  0  0  0  0
   37.3181   -5.1652   17.5916 C   0  0  0  0  0  0  0  0  0  0  0  0
   36.3204   -4.1825   17.4642 C   0  0  0  0  0  0  0  0  0  0  0  0
   35.0005   -4.5890   17.1805 C   0  0  0  0  0  0  0  0  0  0  0  0
   34.6972   -5.9417   17.0040 C   0  0  0  0  0  0  0  0  0  0  0  0
   34.4727   -8.5767   16.7302 H   0  0  0  0  0  0  0  0  0  0  0  0
   36.2511   -2.9218   20.2437 C   0  0  0  0  0  0  0  0  0  0  0  0
   36.6322   -3.9122   21.1657 C   0  0  0  0  0  0  0  0  0  0  0  0
   35.7430   -4.3467   22.1519 C   0  0  0  0  0  0  0  0  0  0  0  0
   34.4517   -3.7943   22.2356 C   0  0  0  0  0  0  0  0  0  0  0  0
   34.0737   -2.8033   21.3238 C   0  0  0  0  0  0  0  0  0  0  0  0
   34.9618   -2.3681   20.3368 C   0  0  0  0  0  0  0  0  0  0  0  0
   33.5207   -4.2005   23.2022 O   0  0  0  0  0  0  0  0  0  0  0  0
   32.5798   -3.3322   23.8297 C   0  0  0  0  0  0  0  0  0  0  0  0
   32.8094   -3.3249   25.3409 C   0  0  0  0  0  0  0  0  0  0  0  0
   33.2284   -1.9887   25.8089 N   0  0  0  0  0  0  0  0  0  0  0  0
   33.0438   -1.8059   27.2538 C   0  0  0  0  0  0  0  0  0  0  0  0
   32.8126   -0.3191   27.4885 C   0  0  0  0  0  0  0  0  0  0  0  0
   32.4880    0.2643   26.1213 C   0  0  1  0  0  0  0  0  0  0  0  0
   33.4908    1.1348   25.7230 F   0  0  0  0  0  0  0  0  0  0  0  0
   32.4322   -0.9306   25.1837 C   0  0  0  0  0  0  0  0  0  0  0  0
   37.4513   -2.4832   17.0273 H   0  0  0  0  0  0  0  0  0  0  0  0
   35.2130    0.9186   16.0787 H   0  0  0  0  0  0  0  0  0  0  0  0
   38.0278    3.2057   18.2120 H   0  0  0  0  0  0  0  0  0  0  0  0
   38.5748    1.2716   19.5682 H   0  0  0  0  0  0  0  0  0  0  0  0
   38.0704   -3.1382   19.2248 H   0  0  0  0  0  0  0  0  0  0  0  0
   37.7540   -7.2285   17.4993 H   0  0  0  0  0  0  0  0  0  0  0  0
   38.2852   -4.8858   17.8190 H   0  0  0  0  0  0  0  0  0  0  0  0
   34.2526   -3.8822   17.1026 H   0  0  0  0  0  0  0  0  0  0  0  0
   33.7293   -6.2282   16.7892 H   0  0  0  0  0  0  0  0  0  0  0  0
   37.5778   -4.3222   21.1136 H   0  0  0  0  0  0  0  0  0  0  0  0
   36.0345   -5.0757   22.8216 H   0  0  0  0  0  0  0  0  0  0  0  0
   33.1299   -2.3896   21.3806 H   0  0  0  0  0  0  0  0  0  0  0  0
   34.6696   -1.6353   19.6715 H   0  0  0  0  0  0  0  0  0  0  0  0
   31.5875   -3.6748   23.6229 H   0  0  0  0  0  0  0  0  0  0  0  0
   32.7057   -2.3404   23.4485 H   0  0  0  0  0  0  0  0  0  0  0  0
   33.5730   -4.0347   25.5817 H   0  0  0  0  0  0  0  0  0  0  0  0
   31.8905   -3.5817   25.8253 H   0  0  0  0  0  0  0  0  0  0  0  0
   33.9177   -2.1294   27.7797 H   0  0  0  0  0  0  0  0  0  0  0  0
   32.2149   -2.3820   27.6088 H   0  0  0  0  0  0  0  0  0  0  0  0
   33.6932    0.1372   27.8900 H   0  0  0  0  0  0  0  0  0  0  0  0
   32.0236   -0.1467   28.1904 H   0  0  0  0  0  0  0  0  0  0  0  0
   31.5713    0.8161   26.1270 H   0  0  0  0  0  0  0  0  0  0  0  0
   32.8446   -0.6721   24.2308 H   0  0  0  0  0  0  0  0  0  0  0  0
   31.4234   -1.2494   25.0236 H   0  0  0  0  0  0  0  0  0  0  0  0
  1  2  1  0  0  0  0
  1 36  1  6  0  0  0
  2  3  1  0  0  0  0
  3  4  2  0  0  0  0
  4  5  1  0  0  0  0
  4 37  1  0  0  0  0
  5  6  1  0  0  0  0
  5  7  2  0  0  0  0
  6 12  1  0  0  0  0
  7  8  1  0  0  0  0
  7 38  1  0  0  0  0
  8  9  2  0  0  0  0
  8 39  1  0  0  0  0
  9 10  1  0  0  0  0
  9  3  1  0  0  0  0
 10 11  1  0  0  0  0
 11 21  1  0  0  0  0
 11  1  1  0  0  0  0
 11 40  1  1  0  0  0
 13 14  1  0  0  0  0
 13 20  1  0  0  0  0
 14 15  2  0  0  0  0
 15 16  1  0  0  0  0
 15 41  1  0  0  0  0
 16 17  2  0  0  0  0
 16 42  1  0  0  0  0
 17  1  1  0  0  0  0
 17 18  1  0  0  0  0
 18 19  2  0  0  0  0
 18 43  1  0  0  0  0
 19 14  1  0  0  0  0
 19 44  1  0  0  0  0
 21 22  2  0  0  0  0
 22 23  1  0  0  0  0
 22 45  1  0  0  0  0
 23 24  2  0  0  0  0
 23 46  1  0  0  0  0
 24 27  1  0  0  0  0
 24 25  1  0  0  0  0
 25 26  2  0  0  0  0
 25 47  1  0  0  0  0
 26 21  1  0  0  0  0
 26 48  1  0  0  0  0
 27 28  1  0  0  0  0
 28 29  1  0  0  0  0
 28 49  1  0  0  0  0
 28 50  1  0  0  0  0
 29 30  1  0  0  0  0
 29 51  1  0  0  0  0
 29 52  1  0  0  0  0
 30 31  1  0  0  0  0
 31 32  1  0  0  0  0
 31 53  1  0  0  0  0
 31 54  1  0  0  0  0
 32 33  1  0  0  0  0
 32 55  1  0  0  0  0
 32 56  1  0  0  0  0
 33 34  1  0  0  0  0
 33 35  1  0  0  0  0
 33 57  1  1  0  0  0
 35 30  1  0  0  0  0
 35 58  1  0  0  0  0
 35 59  1  0  0  0  0
M  END
>  <minimizedAffinity>
-9.12183

$$$$
CHEMBL185114
 OpenBabel01042214213D

 60 64  0  0  0  0  0  0  0  0999 V2000
   37.5884   -1.3517   17.3947 C   0  0  1  0  0  0  0  0  0  0  0  0
   38.4260   -0.1959   16.2534 S   0  0  0  0  0  0  0  0  0  0  0  0
   37.0397    0.8881   15.8856 C   0  0  0  0  0  0  0  0  0  0  0  0
   37.0664    1.6003   14.6790 C   0  0  0  0  0  0  0  0  0  0  0  0
   36.0383    2.4968   14.3577 C   0  0  0  0  0  0  0  0  0  0  0  0
   36.0591    3.2052   13.1564 O   0  0  0  0  0  0  0  0  0  0  0  0
   34.9815    2.6861   15.2504 C   0  0  0  0  0  0  0  0  0  0  0  0
   34.9271    1.9521   16.4394 C   0  0  0  0  0  0  0  0  0  0  0  0
   35.9455    1.0463   16.7608 C   0  0  0  0  0  0  0  0  0  0  0  0
   35.7905    0.2660   17.9083 O   0  0  0  0  0  0  0  0  0  0  0  0
   36.7833   -0.5882   18.4677 C   0  0  1  0  0  0  0  0  0  0  0  0
   36.8287    3.1114   12.4988 H   0  0  0  0  0  0  0  0  0  0  0  0
   34.7338   -5.6439   14.8786 O   0  0  0  0  0  0  0  0  0  0  0  0
   35.4281   -4.5991   15.4844 C   0  0  0  0  0  0  0  0  0  0  0  0
   36.5722   -4.8508   16.2487 C   0  0  0  0  0  0  0  0  0  0  0  0
   37.2660   -3.7966   16.8449 C   0  0  0  0  0  0  0  0  0  0  0  0
   36.8294   -2.4668   16.6853 C   0  0  0  0  0  0  0  0  0  0  0  0
   35.6699   -2.2264   15.9226 C   0  0  0  0  0  0  0  0  0  0  0  0
   34.9789   -3.2866   15.3243 C   0  0  0  0  0  0  0  0  0  0  0  0
   35.0329   -6.6072   14.9895 H   0  0  0  0  0  0  0  0  0  0  0  0
   36.1419   -1.5425   19.4547 C   0  0  0  0  0  0  0  0  0  0  0  0
   34.7420   -1.6628   19.5304 C   0  0  0  0  0  0  0  0  0  0  0  0
   34.1564   -2.5460   20.4375 C   0  0  0  0  0  0  0  0  0  0  0  0
   34.9589   -3.3509   21.2675 C   0  0  0  0  0  0  0  0  0  0  0  0
   36.3536   -3.2718   21.1498 C   0  0  0  0  0  0  0  0  0  0  0  0
   36.9433   -2.3761   20.2543 C   0  0  0  0  0  0  0  0  0  0  0  0
   34.4178   -4.2411   22.2112 O   0  0  0  0  0  0  0  0  0  0  0  0
   33.1912   -4.0544   22.9196 C   0  0  0  0  0  0  0  0  0  0  0  0
   33.4747   -3.4903   24.3317 C   0  0  0  0  0  0  0  0  0  0  0  0
   32.9200   -2.1396   24.5884 N   0  0  0  0  0  0  0  0  0  0  0  0
   31.8111   -1.7640   23.6950 C   0  0  0  0  0  0  0  0  0  0  0  0
   30.7254   -1.1233   24.5486 C   0  0  0  0  0  0  0  0  0  0  0  0
   30.9947   -1.6131   25.9567 C   0  0  1  0  0  0  0  0  0  0  0  0
   30.2791   -2.7998   26.1869 O   0  0  0  0  0  0  0  0  0  0  0  0
   32.4945   -1.8887   25.9752 C   0  0  0  0  0  0  0  0  0  0  0  0
   30.2041   -2.8890   27.1708 H   0  0  0  0  0  0  0  0  0  0  0  0
   38.3467   -1.8859   17.9281 H   0  0  0  0  0  0  0  0  0  0  0  0
   37.8499    1.4634   14.0214 H   0  0  0  0  0  0  0  0  0  0  0  0
   34.2391    3.3690   15.0323 H   0  0  0  0  0  0  0  0  0  0  0  0
   34.1313    2.0788   17.0842 H   0  0  0  0  0  0  0  0  0  0  0  0
   37.4889    0.0300   18.9822 H   0  0  0  0  0  0  0  0  0  0  0  0
   36.9047   -5.8199   16.3723 H   0  0  0  0  0  0  0  0  0  0  0  0
   38.1077   -3.9934   17.4086 H   0  0  0  0  0  0  0  0  0  0  0  0
   35.3268   -1.2604   15.8039 H   0  0  0  0  0  0  0  0  0  0  0  0
   34.1341   -3.0975   14.7626 H   0  0  0  0  0  0  0  0  0  0  0  0
   34.1445   -1.0937   18.9106 H   0  0  0  0  0  0  0  0  0  0  0  0
   33.1283   -2.6096   20.5004 H   0  0  0  0  0  0  0  0  0  0  0  0
   36.9507   -3.8813   21.7304 H   0  0  0  0  0  0  0  0  0  0  0  0
   37.9714   -2.3262   20.1795 H   0  0  0  0  0  0  0  0  0  0  0  0
   32.6870   -4.9940   23.0083 H   0  0  0  0  0  0  0  0  0  0  0  0
   32.5777   -3.3619   22.3820 H   0  0  0  0  0  0  0  0  0  0  0  0
   34.5355   -3.4445   24.4643 H   0  0  0  0  0  0  0  0  0  0  0  0
   32.9892   -4.1495   25.0207 H   0  0  0  0  0  0  0  0  0  0  0  0
   31.4250   -2.6347   23.2075 H   0  0  0  0  0  0  0  0  0  0  0  0
   32.1496   -1.0807   22.9444 H   0  0  0  0  0  0  0  0  0  0  0  0
   29.7559   -1.4354   24.2207 H   0  0  0  0  0  0  0  0  0  0  0  0
   30.7411   -0.0553   24.4843 H   0  0  0  0  0  0  0  0  0  0  0  0
   30.6989   -0.9120   26.7090 H   0  0  0  0  0  0  0  0  0  0  0  0
   32.7000   -2.7468   26.5805 H   0  0  0  0  0  0  0  0  0  0  0  0
   33.0241   -1.0541   26.3848 H   0  0  0  0  0  0  0  0  0  0  0  0
  1  2  1  0  0  0  0
  1 37  1  1  0  0  0
  2  3  1  0  0  0  0
  3  4  2  0  0  0  0
  4  5  1  0  0  0  0
  4 38  1  0  0  0  0
  5  6  1  0  0  0  0
  5  7  2  0  0  0  0
  6 12  1  0  0  0  0
  7  8  1  0  0  0  0
  7 39  1  0  0  0  0
  8  9  2  0  0  0  0
  8 40  1  0  0  0  0
  9 10  1  0  0  0  0
  9  3  1  0  0  0  0
 10 11  1  0  0  0  0
 11 21  1  0  0  0  0
 11  1  1  0  0  0  0
 11 41  1  1  0  0  0
 13 14  1  0  0  0  0
 13 20  1  0  0  0  0
 14 15  2  0  0  0  0
 15 16  1  0  0  0  0
 15 42  1  0  0  0  0
 16 17  2  0  0  0  0
 16 43  1  0  0  0  0
 17  1  1  0  0  0  0
 17 18  1  0  0  0  0
 18 19  2  0  0  0  0
 18 44  1  0  0  0  0
 19 14  1  0  0  0  0
 19 45  1  0  0  0  0
 21 22  2  0  0  0  0
 22 23  1  0  0  0  0
 22 46  1  0  0  0  0
 23 24  2  0  0  0  0
 23 47  1  0  0  0  0
 24 27  1  0  0  0  0
 24 25  1  0  0  0  0
 25 26  2  0  0  0  0
 25 48  1  0  0  0  0
 26 21  1  0  0  0  0
 26 49  1  0  0  0  0
 27 28  1  0  0  0  0
 28 29  1  0  0  0  0
 28 50  1  0  0  0  0
 28 51  1  0  0  0  0
 29 30  1  0  0  0  0
 29 52  1  0  0  0  0
 29 53  1  0  0  0  0
 30 31  1  0  0  0  0
 31 32  1  0  0  0  0
 31 54  1  0  0  0  0
 31 55  1  0  0  0  0
 32 33  1  0  0  0  0
 32 56  1  0  0  0  0
 32 57  1  0  0  0  0
 33 34  1  0  0  0  0
 33 35  1  0  0  0  0
 33 58  1  1  0  0  0
 34 36  1  0  0  0  0
 35 30  1  0  0  0  0
 35 59  1  0  0  0  0
 35 60  1  0  0  0  0
M  END
>  <minimizedAffinity>
-9.14329

$$$$
CHEMBL185114
 OpenBabel01042214213D

 60 64  0  0  0  0  0  0  0  0999 V2000
   37.0634   -2.3603   17.6480 C   0  0  1  0  0  0  0  0  0  0  0  0
   37.9649   -1.4276   16.3606 S   0  0  0  0  0  0  0  0  0  0  0  0
   36.7821   -0.0995   16.0971 C   0  0  0  0  0  0  0  0  0  0  0  0
   36.8001    0.5587   14.8600 C   0  0  0  0  0  0  0  0  0  0  0  0
   35.9351    1.6329   14.6117 C   0  0  0  0  0  0  0  0  0  0  0  0
   35.9473    2.2887   13.3808 O   0  0  0  0  0  0  0  0  0  0  0  0
   35.0521    2.0544   15.6077 C   0  0  0  0  0  0  0  0  0  0  0  0
   35.0008    1.3800   16.8316 C   0  0  0  0  0  0  0  0  0  0  0  0
   35.8545    0.2985   17.0816 C   0  0  0  0  0  0  0  0  0  0  0  0
   35.6912   -0.4024   18.2781 O   0  0  0  0  0  0  0  0  0  0  0  0
   36.5591   -1.4215   18.7645 C   0  0  1  0  0  0  0  0  0  0  0  0
   36.5981    2.0246   12.6458 H   0  0  0  0  0  0  0  0  0  0  0  0
   33.1327   -6.0572   15.7023 O   0  0  0  0  0  0  0  0  0  0  0  0
   34.0885   -5.1577   16.1693 C   0  0  0  0  0  0  0  0  0  0  0  0
   35.2011   -5.6075   16.8878 C   0  0  0  0  0  0  0  0  0  0  0  0
   36.1577   -4.6994   17.3444 C   0  0  0  0  0  0  0  0  0  0  0  0
   36.0211   -3.3210   17.0880 C   0  0  0  0  0  0  0  0  0  0  0  0
   34.8911   -2.8786   16.3730 C   0  0  0  0  0  0  0  0  0  0  0  0
   33.9356   -3.7932   15.9147 C   0  0  0  0  0  0  0  0  0  0  0  0
   33.2147   -7.0521   15.8843 H   0  0  0  0  0  0  0  0  0  0  0  0
   35.8689   -2.2003   19.8660 C   0  0  0  0  0  0  0  0  0  0  0  0
   36.6123   -2.9993   20.7542 C   0  0  0  0  0  0  0  0  0  0  0  0
   35.9727   -3.7108   21.7694 C   0  0  0  0  0  0  0  0  0  0  0  0
   34.5787   -3.6146   21.9376 C   0  0  0  0  0  0  0  0  0  0  0  0
   33.8472   -2.7728   21.0882 C   0  0  0  0  0  0  0  0  0  0  0  0
   34.4823   -2.0720   20.0599 C   0  0  0  0  0  0  0  0  0  0  0  0
   33.8851   -4.3265   22.9316 O   0  0  0  0  0  0  0  0  0  0  0  0
   32.7358   -3.8571   23.6387 C   0  0  0  0  0  0  0  0  0  0  0  0
   33.1638   -3.2115   24.9776 C   0  0  0  0  0  0  0  0  0  0  0  0
   32.4842   -1.9341   25.3011 N   0  0  0  0  0  0  0  0  0  0  0  0
   31.4762   -1.5202   24.3104 C   0  0  0  0  0  0  0  0  0  0  0  0
   30.2455   -1.0473   25.0718 C   0  0  0  0  0  0  0  0  0  0  0  0
   30.3649   -1.6827   26.4419 C   0  0  1  0  0  0  0  0  0  0  0  0
   29.7133   -2.9272   26.4416 O   0  0  0  0  0  0  0  0  0  0  0  0
   31.8657   -1.8725   26.6356 C   0  0  0  0  0  0  0  0  0  0  0  0
   29.5180   -3.1353   27.3905 H   0  0  0  0  0  0  0  0  0  0  0  0
   37.7622   -3.0198   18.1187 H   0  0  0  0  0  0  0  0  0  0  0  0
   37.4560    0.2497   14.1256 H   0  0  0  0  0  0  0  0  0  0  0  0
   34.4361    2.8653   15.4403 H   0  0  0  0  0  0  0  0  0  0  0  0
   34.3295    1.6812   17.5552 H   0  0  0  0  0  0  0  0  0  0  0  0
   37.4289   -0.9423   19.1628 H   0  0  0  0  0  0  0  0  0  0  0  0
   35.3152   -6.6148   17.0811 H   0  0  0  0  0  0  0  0  0  0  0  0
   36.9738   -5.0414   17.8755 H   0  0  0  0  0  0  0  0  0  0  0  0
   34.7665   -1.8715   16.1854 H   0  0  0  0  0  0  0  0  0  0  0  0
   33.1149   -3.4577   15.3866 H   0  0  0  0  0  0  0  0  0  0  0  0
   37.6377   -3.0593   20.6539 H   0  0  0  0  0  0  0  0  0  0  0  0
   36.5252   -4.3115   22.4011 H   0  0  0  0  0  0  0  0  0  0  0  0
   32.8294   -2.6697   21.2238 H   0  0  0  0  0  0  0  0  0  0  0  0
   33.9314   -1.4577   19.4401 H   0  0  0  0  0  0  0  0  0  0  0  0
   32.0808   -4.6799   23.8358 H   0  0  0  0  0  0  0  0  0  0  0  0
   32.2316   -3.1258   23.0422 H   0  0  0  0  0  0  0  0  0  0  0  0
   34.2168   -3.0262   24.9354 H   0  0  0  0  0  0  0  0  0  0  0  0
   32.8852   -3.9021   25.7459 H   0  0  0  0  0  0  0  0  0  0  0  0
   31.2205   -2.3483   23.6829 H   0  0  0  0  0  0  0  0  0  0  0  0
   31.8588   -0.7352   23.6921 H   0  0  0  0  0  0  0  0  0  0  0  0
   29.3518   -1.3738   24.5823 H   0  0  0  0  0  0  0  0  0  0  0  0
   30.1920    0.0200   25.1267 H   0  0  0  0  0  0  0  0  0  0  0  0
   29.9242   -1.0927   27.2182 H   0  0  0  0  0  0  0  0  0  0  0  0
   32.0526   -2.7826   27.1664 H   0  0  0  0  0  0  0  0  0  0  0  0
   32.2761   -1.0629   27.2022 H   0  0  0  0  0  0  0  0  0  0  0  0
  1  2  1  0  0  0  0
  1 37  1  1  0  0  0
  2  3  1  0  0  0  0
  3  4  2  0  0  0  0
  4  5  1  0  0  0  0
  4 38  1  0  0  0  0
  5  6  1  0  0  0  0
  5  7  2  0  0  0  0
  6 12  1  0  0  0  0
  7  8  1  0  0  0  0
  7 39  1  0  0  0  0
  8  9  2  0  0  0  0
  8 40  1  0  0  0  0
  9 10  1  0  0  0  0
  9  3  1  0  0  0  0
 10 11  1  0  0  0  0
 11 21  1  0  0  0  0
 11  1  1  0  0  0  0
 11 41  1  1  0  0  0
 13 14  1  0  0  0  0
 13 20  1  0  0  0  0
 14 15  2  0  0  0  0
 15 16  1  0  0  0  0
 15 42  1  0  0  0  0
 16 17  2  0  0  0  0
 16 43  1  0  0  0  0
 17  1  1  0  0  0  0
 17 18  1  0  0  0  0
 18 19  2  0  0  0  0
 18 44  1  0  0  0  0
 19 14  1  0  0  0  0
 19 45  1  0  0  0  0
 21 22  2  0  0  0  0
 22 23  1  0  0  0  0
 22 46  1  0  0  0  0
 23 24  2  0  0  0  0
 23 47  1  0  0  0  0
 24 27  1  0  0  0  0
 24 25  1  0  0  0  0
 25 26  2  0  0  0  0
 25 48  1  0  0  0  0
 26 21  1  0  0  0  0
 26 49  1  0  0  0  0
 27 28  1  0  0  0  0
 28 29  1  0  0  0  0
 28 50  1  0  0  0  0
 28 51  1  0  0  0  0
 29 30  1  0  0  0  0
 29 52  1  0  0  0  0
 29 53  1  0  0  0  0
 30 31  1  0  0  0  0
 31 32  1  0  0  0  0
 31 54  1  0  0  0  0
 31 55  1  0  0  0  0
 32 33  1  0  0  0  0
 32 56  1  0  0  0  0
 32 57  1  0  0  0  0
 33 34  1  0  0  0  0
 33 35  1  0  0  0  0
 33 58  1  1  0  0  0
 34 36  1  0  0  0  0
 35 30  1  0  0  0  0
 35 59  1  0  0  0  0
 35 60  1  0  0  0  0
M  END
>  <minimizedAffinity>
-9.16052

$$$$
CHEMBL135
 OpenBabel01042214213D

 44 47  0  0  0  0  0  0  0  0999 V2000
   28.3030   -1.9560   28.8424 C   0  0  0  0  0  0  0  0  0  0  0  0
   28.1522   -1.5412   27.3434 C   0  0  2  0  0  0  0  0  0  0  0  0
   29.0406   -2.4408   26.4576 C   0  0  0  0  0  0  0  0  0  0  0  0
   30.5478   -2.1692   26.7022 C   0  0  0  0  0  0  0  0  0  0  0  0
   30.9293   -0.6591   26.5963 C   0  0  2  0  0  0  0  0  0  0  0  0
   32.3926   -0.3561   26.9238 C   0  0  0  0  0  0  0  0  0  0  0  0
   33.4156   -1.2780   26.6116 C   0  0  0  0  0  0  0  0  0  0  0  0
   34.7572   -0.9639   26.8342 C   0  0  0  0  0  0  0  0  0  0  0  0
   35.1125    0.2849   27.3472 C   0  0  0  0  0  0  0  0  0  0  0  0
   36.4488    0.6042   27.5780 O   0  0  0  0  0  0  0  0  0  0  0  0
   34.1211    1.2247   27.6277 C   0  0  0  0  0  0  0  0  0  0  0  0
   32.7667    0.9313   27.4003 C   0  0  0  0  0  0  0  0  0  0  0  0
   31.7469    1.9890   27.7650 C   0  0  0  0  0  0  0  0  0  0  0  0
   30.3452    1.7040   27.2194 C   0  0  0  0  0  0  0  0  0  0  0  0
   29.9833    0.2325   27.4557 C   0  0  1  0  0  0  0  0  0  0  0  0
   28.5287   -0.0802   27.0575 C   0  0  2  0  0  0  0  0  0  0  0  0
   27.3916    0.7381   27.6586 C   0  0  0  0  0  0  0  0  0  0  0  0
   26.1440   -0.1397   27.4454 C   0  0  0  0  0  0  0  0  0  0  0  0
   26.6596   -1.5158   26.9500 C   0  0  2  0  0  0  0  0  0  0  0  0
   25.9224   -2.6106   27.4444 O   0  0  0  0  0  0  0  0  0  0  0  0
   37.1926   -0.0560   27.3835 H   0  0  0  0  0  0  0  0  0  0  0  0
   25.7188   -2.4542   28.4021 H   0  0  0  0  0  0  0  0  0  0  0  0
   29.3400   -1.9708   29.1058 H   0  0  0  0  0  0  0  0  0  0  0  0
   27.8844   -2.9301   28.9868 H   0  0  0  0  0  0  0  0  0  0  0  0
   27.7879   -1.2511   29.4611 H   0  0  0  0  0  0  0  0  0  0  0  0
   28.8150   -2.2479   25.4296 H   0  0  0  0  0  0  0  0  0  0  0  0
   28.8388   -3.4616   26.7070 H   0  0  0  0  0  0  0  0  0  0  0  0
   31.1132   -2.7139   25.9752 H   0  0  0  0  0  0  0  0  0  0  0  0
   30.7676   -2.4818   27.7016 H   0  0  0  0  0  0  0  0  0  0  0  0
   30.7990   -0.4147   25.5628 H   0  0  0  0  0  0  0  0  0  0  0  0
   33.1678   -2.1971   26.2131 H   0  0  0  0  0  0  0  0  0  0  0  0
   35.4899   -1.6580   26.6186 H   0  0  0  0  0  0  0  0  0  0  0  0
   34.3860    2.1472   28.0071 H   0  0  0  0  0  0  0  0  0  0  0  0
   32.0781    2.9277   27.3724 H   0  0  0  0  0  0  0  0  0  0  0  0
   31.6721    1.9974   28.8323 H   0  0  0  0  0  0  0  0  0  0  0  0
   30.3241    1.9106   26.1697 H   0  0  0  0  0  0  0  0  0  0  0  0
   29.6368    2.3269   27.7245 H   0  0  0  0  0  0  0  0  0  0  0  0
   30.0933    0.0327   28.5011 H   0  0  0  0  0  0  0  0  0  0  0  0
   28.5863    0.1811   26.0215 H   0  0  0  0  0  0  0  0  0  0  0  0
   27.2883    1.6747   27.1516 H   0  0  0  0  0  0  0  0  0  0  0  0
   27.5560    0.9750   28.6890 H   0  0  0  0  0  0  0  0  0  0  0  0
   25.5017    0.3012   26.7120 H   0  0  0  0  0  0  0  0  0  0  0  0
   25.5789   -0.2383   28.3486 H   0  0  0  0  0  0  0  0  0  0  0  0
   26.5324   -1.6234   25.8930 H   0  0  0  0  0  0  0  0  0  0  0  0
  1 23  1  0  0  0  0
  1 24  1  0  0  0  0
  1 25  1  0  0  0  0
  2  1  1  1  0  0  0
  2  3  1  0  0  0  0
  3  4  1  0  0  0  0
  3 26  1  0  0  0  0
  3 27  1  0  0  0  0
  4  5  1  0  0  0  0
  4 28  1  0  0  0  0
  4 29  1  0  0  0  0
  5  6  1  0  0  0  0
  5 30  1  6  0  0  0
  6  7  2  0  0  0  0
  7  8  1  0  0  0  0
  7 31  1  0  0  0  0
  8  9  2  0  0  0  0
  8 32  1  0  0  0  0
  9 10  1  0  0  0  0
  9 11  1  0  0  0  0
 10 21  1  0  0  0  0
 11 12  2  0  0  0  0
 11 33  1  0  0  0  0
 12 13  1  0  0  0  0
 12  6  1  0  0  0  0
 13 14  1  0  0  0  0
 13 34  1  0  0  0  0
 13 35  1  0  0  0  0
 14 15  1  0  0  0  0
 14 36  1  0  0  0  0
 14 37  1  0  0  0  0
 15 16  1  0  0  0  0
 15  5  1  0  0  0  0
 15 38  1  1  0  0  0
 16 17  1  0  0  0  0
 16  2  1  0  0  0  0
 16 39  1  6  0  0  0
 17 18  1  0  0  0  0
 17 40  1  0  0  0  0
 17 41  1  0  0  0  0
 18 19  1  0  0  0  0
 18 42  1  0  0  0  0
 18 43  1  0  0  0  0
 19 20  1  0  0  0  0
 19  2  1  0  0  0  0
 19 44  1  6  0  0  0
 20 22  1  0  0  0  0
M  END
>  <minimizedAffinity>
-9.17559

$$$$
CHEMBL184679
 OpenBabel01042214213D

 59 63  0  0  0  0  0  0  0  0999 V2000
   39.2730   -0.6564   14.7952 C   0  0  1  0  0  0  0  0  0  0  0  0
   40.2101   -2.1784   15.1660 S   0  0  0  0  0  0  0  0  0  0  0  0
   40.6020   -2.5106   13.4470 C   0  0  0  0  0  0  0  0  0  0  0  0
   41.8473   -3.0720   13.1377 C   0  0  0  0  0  0  0  0  0  0  0  0
   42.1555   -3.4271   11.8211 C   0  0  0  0  0  0  0  0  0  0  0  0
   43.3934   -3.9981   11.5342 O   0  0  0  0  0  0  0  0  0  0  0  0
   41.2153   -3.2128   10.8058 C   0  0  0  0  0  0  0  0  0  0  0  0
   39.9816   -2.6290   11.1050 C   0  0  0  0  0  0  0  0  0  0  0  0
   39.6729   -2.2546   12.4179 C   0  0  0  0  0  0  0  0  0  0  0  0
   38.4613   -1.5853   12.6511 O   0  0  0  0  0  0  0  0  0  0  0  0
   38.0606   -0.9781   13.8860 C   0  0  1  0  0  0  0  0  0  0  0  0
   43.6405   -4.2793   10.5932 H   0  0  0  0  0  0  0  0  0  0  0  0
   37.9055    2.0870   19.6334 O   0  0  0  0  0  0  0  0  0  0  0  0
   38.2226    1.4308   18.4463 C   0  0  0  0  0  0  0  0  0  0  0  0
   38.6812    0.1112   18.4877 C   0  0  0  0  0  0  0  0  0  0  0  0
   39.0049   -0.5595   17.3047 C   0  0  0  0  0  0  0  0  0  0  0  0
   38.8616    0.0775   16.0593 C   0  0  0  0  0  0  0  0  0  0  0  0
   38.4121    1.4135   16.0286 C   0  0  0  0  0  0  0  0  0  0  0  0
   38.0909    2.0813   17.2134 C   0  0  0  0  0  0  0  0  0  0  0  0
   37.5716    3.0439   19.6367 H   0  0  0  0  0  0  0  0  0  0  0  0
   36.9965   -1.8219   14.5648 C   0  0  0  0  0  0  0  0  0  0  0  0
   36.8845   -3.1879   14.2520 C   0  0  0  0  0  0  0  0  0  0  0  0
   35.8839   -3.9713   14.8327 C   0  0  0  0  0  0  0  0  0  0  0  0
   34.9750   -3.4008   15.7424 C   0  0  0  0  0  0  0  0  0  0  0  0
   35.0899   -2.0437   16.0606 C   0  0  0  0  0  0  0  0  0  0  0  0
   36.0898   -1.2589   15.4804 C   0  0  0  0  0  0  0  0  0  0  0  0
   33.9498   -4.1423   16.3469 O   0  0  0  0  0  0  0  0  0  0  0  0
   33.1523   -3.6776   17.4335 C   0  0  0  0  0  0  0  0  0  0  0  0
   33.5166   -4.4404   18.7070 C   0  0  0  0  0  0  0  0  0  0  0  0
   34.3843   -3.6287   19.5835 N   0  0  0  0  0  0  0  0  0  0  0  0
   34.2218   -2.1853   19.3695 C   0  0  0  0  0  0  0  0  0  0  0  0
   35.5479   -1.5297   19.7310 C   0  0  0  0  0  0  0  0  0  0  0  0
   36.5634   -2.6616   19.7784 C   0  0  1  0  0  0  0  0  0  0  0  0
   37.0263   -2.8343   21.0737 F   0  0  0  0  0  0  0  0  0  0  0  0
   35.8010   -3.8971   19.3284 C   0  0  0  0  0  0  0  0  0  0  0  0
   39.9173    0.0094   14.2599 H   0  0  0  0  0  0  0  0  0  0  0  0
   42.5414   -3.2244   13.8860 H   0  0  0  0  0  0  0  0  0  0  0  0
   41.4339   -3.4865    9.8351 H   0  0  0  0  0  0  0  0  0  0  0  0
   39.2929   -2.4727   10.3524 H   0  0  0  0  0  0  0  0  0  0  0  0
   37.6159   -0.0283   13.6739 H   0  0  0  0  0  0  0  0  0  0  0  0
   38.7812   -0.3699   19.3952 H   0  0  0  0  0  0  0  0  0  0  0  0
   39.3520   -1.5305   17.3457 H   0  0  0  0  0  0  0  0  0  0  0  0
   38.3196    1.9020   15.1242 H   0  0  0  0  0  0  0  0  0  0  0  0
   37.7557    3.0567   17.1796 H   0  0  0  0  0  0  0  0  0  0  0  0
   37.5476   -3.6161   13.5872 H   0  0  0  0  0  0  0  0  0  0  0  0
   35.8113   -4.9725   14.5933 H   0  0  0  0  0  0  0  0  0  0  0  0
   34.4300   -1.6180   16.7302 H   0  0  0  0  0  0  0  0  0  0  0  0
   36.1634   -0.2591   15.7255 H   0  0  0  0  0  0  0  0  0  0  0  0
   32.1183   -3.8358   17.2083 H   0  0  0  0  0  0  0  0  0  0  0  0
   33.3333   -2.6337   17.5832 H   0  0  0  0  0  0  0  0  0  0  0  0
   34.0322   -5.3393   18.4404 H   0  0  0  0  0  0  0  0  0  0  0  0
   32.6151   -4.6668   19.2370 H   0  0  0  0  0  0  0  0  0  0  0  0
   33.4416   -1.8064   19.9962 H   0  0  0  0  0  0  0  0  0  0  0  0
   33.9572   -1.9772   18.3538 H   0  0  0  0  0  0  0  0  0  0  0  0
   35.4794   -1.0490   20.6845 H   0  0  0  0  0  0  0  0  0  0  0  0
   35.8249   -0.7783   19.0214 H   0  0  0  0  0  0  0  0  0  0  0  0
   37.4141   -2.4646   19.1600 H   0  0  0  0  0  0  0  0  0  0  0  0
   36.1212   -4.7523   19.8860 H   0  0  0  0  0  0  0  0  0  0  0  0
   35.9750   -4.1028   18.2929 H   0  0  0  0  0  0  0  0  0  0  0  0
  1  2  1  0  0  0  0
  1 36  1  6  0  0  0
  2  3  1  0  0  0  0
  3  4  2  0  0  0  0
  4  5  1  0  0  0  0
  4 37  1  0  0  0  0
  5  6  1  0  0  0  0
  5  7  2  0  0  0  0
  6 12  1  0  0  0  0
  7  8  1  0  0  0  0
  7 38  1  0  0  0  0
  8  9  2  0  0  0  0
  8 39  1  0  0  0  0
  9 10  1  0  0  0  0
  9  3  1  0  0  0  0
 10 11  1  0  0  0  0
 11 21  1  0  0  0  0
 11  1  1  0  0  0  0
 11 40  1  6  0  0  0
 13 14  1  0  0  0  0
 13 20  1  0  0  0  0
 14 15  2  0  0  0  0
 15 16  1  0  0  0  0
 15 41  1  0  0  0  0
 16 17  2  0  0  0  0
 16 42  1  0  0  0  0
 17  1  1  0  0  0  0
 17 18  1  0  0  0  0
 18 19  2  0  0  0  0
 18 43  1  0  0  0  0
 19 14  1  0  0  0  0
 19 44  1  0  0  0  0
 21 22  2  0  0  0  0
 22 23  1  0  0  0  0
 22 45  1  0  0  0  0
 23 24  2  0  0  0  0
 23 46  1  0  0  0  0
 24 27  1  0  0  0  0
 24 25  1  0  0  0  0
 25 26  2  0  0  0  0
 25 47  1  0  0  0  0
 26 21  1  0  0  0  0
 26 48  1  0  0  0  0
 27 28  1  0  0  0  0
 28 29  1  0  0  0  0
 28 49  1  0  0  0  0
 28 50  1  0  0  0  0
 29 30  1  0  0  0  0
 29 51  1  0  0  0  0
 29 52  1  0  0  0  0
 30 31  1  0  0  0  0
 31 32  1  0  0  0  0
 31 53  1  0  0  0  0
 31 54  1  0  0  0  0
 32 33  1  0  0  0  0
 32 55  1  0  0  0  0
 32 56  1  0  0  0  0
 33 34  1  0  0  0  0
 33 35  1  0  0  0  0
 33 57  1  6  0  0  0
 35 30  1  0  0  0  0
 35 58  1  0  0  0  0
 35 59  1  0  0  0  0
M  END
>  <minimizedAffinity>
-9.18075

$$$$
CHEMBL304552
 OpenBabel01042214213D

 62 66  0  0  0  0  0  0  0  0999 V2000
   36.4732   -2.5531   17.6441 C   0  0  1  0  0  0  0  0  0  0  0  0
   35.1115   -1.3589   17.4163 S   0  0  0  0  0  0  0  0  0  0  0  0
   36.1700    0.0691   17.6484 C   0  0  0  0  0  0  0  0  0  0  0  0
   35.9437    1.2141   16.8768 C   0  0  0  0  0  0  0  0  0  0  0  0
   36.6803    2.3828   17.1137 C   0  0  0  0  0  0  0  0  0  0  0  0
   36.4417    3.5358   16.3666 O   0  0  0  0  0  0  0  0  0  0  0  0
   37.6528    2.3978   18.1192 C   0  0  0  0  0  0  0  0  0  0  0  0
   37.9031    1.2466   18.8725 C   0  0  0  0  0  0  0  0  0  0  0  0
   37.1847    0.0702   18.6267 C   0  0  0  0  0  0  0  0  0  0  0  0
   37.5390   -1.0874   19.3370 O   0  0  0  0  0  0  0  0  0  0  0  0
   37.0784   -2.4176   19.0646 C   0  0  1  0  0  0  0  0  0  0  0  0
   35.7093    3.5707   15.6666 H   0  0  0  0  0  0  0  0  0  0  0  0
   34.7777   -7.8820   16.3989 O   0  0  0  0  0  0  0  0  0  0  0  0
   35.1864   -6.5865   16.7034 C   0  0  0  0  0  0  0  0  0  0  0  0
   34.2772   -5.5202   16.6561 C   0  0  0  0  0  0  0  0  0  0  0  0
   34.6993   -4.2236   16.9660 C   0  0  0  0  0  0  0  0  0  0  0  0
   36.0333   -3.9756   17.3419 C   0  0  0  0  0  0  0  0  0  0  0  0
   36.9436   -5.0529   17.3636 C   0  0  0  0  0  0  0  0  0  0  0  0
   36.5182   -6.3486   17.0546 C   0  0  0  0  0  0  0  0  0  0  0  0
   33.8237   -8.0832   16.1343 H   0  0  0  0  0  0  0  0  0  0  0  0
   36.1491   -2.8802   20.1719 C   0  0  0  0  0  0  0  0  0  0  0  0
   34.8608   -2.3262   20.2805 C   0  0  0  0  0  0  0  0  0  0  0  0
   34.0026   -2.7203   21.3098 C   0  0  0  0  0  0  0  0  0  0  0  0
   34.4166   -3.6857   22.2507 C   0  0  0  0  0  0  0  0  0  0  0  0
   35.7002   -4.2352   22.1440 C   0  0  0  0  0  0  0  0  0  0  0  0
   36.5588   -3.8423   21.1139 C   0  0  0  0  0  0  0  0  0  0  0  0
   33.5971   -4.1221   23.3059 O   0  0  0  0  0  0  0  0  0  0  0  0
   32.5387   -3.3702   23.9010 C   0  0  0  0  0  0  0  0  0  0  0  0
   32.7970   -3.1576   25.3957 C   0  0  0  0  0  0  0  0  0  0  0  0
   31.6008   -2.5715   26.0426 N   0  0  0  0  0  0  0  0  0  0  0  0
   31.9707   -1.8079   27.2528 C   0  0  0  0  0  0  0  0  0  0  0  0
   30.7253   -1.2951   28.0043 C   0  0  0  0  0  0  0  0  0  0  0  0
   29.4319   -1.5011   27.2093 C   0  0  0  0  0  0  0  0  0  0  0  0
   29.6144   -1.0698   25.7508 C   0  0  0  0  0  0  0  0  0  0  0  0
   30.8621   -1.7060   25.0988 C   0  0  0  0  0  0  0  0  0  0  0  0
   37.2423   -2.3210   16.9373 H   0  0  0  0  0  0  0  0  0  0  0  0
   35.2315    1.1981   16.1301 H   0  0  0  0  0  0  0  0  0  0  0  0
   38.1870    3.2609   18.3055 H   0  0  0  0  0  0  0  0  0  0  0  0
   38.6211    1.2642   19.6135 H   0  0  0  0  0  0  0  0  0  0  0  0
   37.9197   -3.0787   19.0608 H   0  0  0  0  0  0  0  0  0  0  0  0
   33.2946   -5.6926   16.3921 H   0  0  0  0  0  0  0  0  0  0  0  0
   34.0273   -3.4418   16.9188 H   0  0  0  0  0  0  0  0  0  0  0  0
   37.9315   -4.8835   17.6095 H   0  0  0  0  0  0  0  0  0  0  0  0
   37.1897   -7.1317   17.0860 H   0  0  0  0  0  0  0  0  0  0  0  0
   34.5469   -1.6226   19.5939 H   0  0  0  0  0  0  0  0  0  0  0  0
   33.0614   -2.3031   21.3820 H   0  0  0  0  0  0  0  0  0  0  0  0
   36.0149   -4.9367   22.8324 H   0  0  0  0  0  0  0  0  0  0  0  0
   37.4997   -4.2604   21.0434 H   0  0  0  0  0  0  0  0  0  0  0  0
   31.6180   -3.9008   23.7760 H   0  0  0  0  0  0  0  0  0  0  0  0
   32.4855   -2.4146   23.4226 H   0  0  0  0  0  0  0  0  0  0  0  0
   33.6271   -2.4940   25.5201 H   0  0  0  0  0  0  0  0  0  0  0  0
   33.0129   -4.1017   25.8507 H   0  0  0  0  0  0  0  0  0  0  0  0
   32.5715   -0.9706   26.9648 H   0  0  0  0  0  0  0  0  0  0  0  0
   32.5112   -2.4596   27.9071 H   0  0  0  0  0  0  0  0  0  0  0  0
   30.8470   -0.2495   28.1960 H   0  0  0  0  0  0  0  0  0  0  0  0
   30.6408   -1.8552   28.9121 H   0  0  0  0  0  0  0  0  0  0  0  0
   28.6514   -0.9184   27.6523 H   0  0  0  0  0  0  0  0  0  0  0  0
   29.1788   -2.5405   27.2301 H   0  0  0  0  0  0  0  0  0  0  0  0
   29.7148   -0.0050   25.7176 H   0  0  0  0  0  0  0  0  0  0  0  0
   28.7565   -1.4007   25.2036 H   0  0  0  0  0  0  0  0  0  0  0  0
   31.5130   -0.9253   24.7645 H   0  0  0  0  0  0  0  0  0  0  0  0
   30.5339   -2.3136   24.2814 H   0  0  0  0  0  0  0  0  0  0  0  0
  1  2  1  0  0  0  0
  1 36  1  6  0  0  0
  2  3  1  0  0  0  0
  3  4  2  0  0  0  0
  4  5  1  0  0  0  0
  4 37  1  0  0  0  0
  5  6  1  0  0  0  0
  5  7  2  0  0  0  0
  6 12  1  0  0  0  0
  7  8  1  0  0  0  0
  7 38  1  0  0  0  0
  8  9  2  0  0  0  0
  8 39  1  0  0  0  0
  9 10  1  0  0  0  0
  9  3  1  0  0  0  0
 10 11  1  0  0  0  0
 11 21  1  0  0  0  0
 11  1  1  0  0  0  0
 11 40  1  1  0  0  0
 13 14  1  0  0  0  0
 13 20  1  0  0  0  0
 14 15  2  0  0  0  0
 15 16  1  0  0  0  0
 15 41  1  0  0  0  0
 16 17  2  0  0  0  0
 16 42  1  0  0  0  0
 17  1  1  0  0  0  0
 17 18  1  0  0  0  0
 18 19  2  0  0  0  0
 18 43  1  0  0  0  0
 19 14  1  0  0  0  0
 19 44  1  0  0  0  0
 21 22  2  0  0  0  0
 22 23  1  0  0  0  0
 22 45  1  0  0  0  0
 23 24  2  0  0  0  0
 23 46  1  0  0  0  0
 24 27  1  0  0  0  0
 24 25  1  0  0  0  0
 25 26  2  0  0  0  0
 25 47  1  0  0  0  0
 26 21  1  0  0  0  0
 26 48  1  0  0  0  0
 27 28  1  0  0  0  0
 28 29  1  0  0  0  0
 28 49  1  0  0  0  0
 28 50  1  0  0  0  0
 29 30  1  0  0  0  0
 29 51  1  0  0  0  0
 29 52  1  0  0  0  0
 30 31  1  0  0  0  0
 31 32  1  0  0  0  0
 31 53  1  0  0  0  0
 31 54  1  0  0  0  0
 32 33  1  0  0  0  0
 32 55  1  0  0  0  0
 32 56  1  0  0  0  0
 33 34  1  0  0  0  0
 33 57  1  0  0  0  0
 33 58  1  0  0  0  0
 34 35  1  0  0  0  0
 34 59  1  0  0  0  0
 34 60  1  0  0  0  0
 35 30  1  0  0  0  0
 35 61  1  0  0  0  0
 35 62  1  0  0  0  0
M  END
>  <minimizedAffinity>
-9.18627

$$$$
CHEMBL304552
 OpenBabel01042214213D

 62 66  0  0  0  0  0  0  0  0999 V2000
   36.6146   -2.1789   17.5963 C   0  0  1  0  0  0  0  0  0  0  0  0
   35.2763   -0.9899   17.2244 S   0  0  0  0  0  0  0  0  0  0  0  0
   36.3235    0.4388   17.4843 C   0  0  0  0  0  0  0  0  0  0  0  0
   36.1863    1.5545   16.6466 C   0  0  0  0  0  0  0  0  0  0  0  0
   36.9129    2.7252   16.9083 C   0  0  0  0  0  0  0  0  0  0  0  0
   36.7616    3.8546   16.1063 O   0  0  0  0  0  0  0  0  0  0  0  0
   37.7883    2.7699   17.9966 C   0  0  0  0  0  0  0  0  0  0  0  0
   37.9362    1.6546   18.8258 C   0  0  0  0  0  0  0  0  0  0  0  0
   37.2229    0.4778   18.5650 C   0  0  0  0  0  0  0  0  0  0  0  0
   37.4503   -0.6418   19.3797 O   0  0  0  0  0  0  0  0  0  0  0  0
   37.1256   -2.0019   19.0527 C   0  0  1  0  0  0  0  0  0  0  0  0
   36.1193    3.8709   15.3205 H   0  0  0  0  0  0  0  0  0  0  0  0
   35.0253   -7.5406   16.3467 O   0  0  0  0  0  0  0  0  0  0  0  0
   35.4091   -6.2378   16.6545 C   0  0  0  0  0  0  0  0  0  0  0  0
   36.7235   -5.9852   17.0581 C   0  0  0  0  0  0  0  0  0  0  0  0
   37.1229   -4.6848   17.3773 C   0  0  0  0  0  0  0  0  0  0  0  0
   36.1999   -3.6152   17.3199 C   0  0  0  0  0  0  0  0  0  0  0  0
   34.8863   -3.8800   16.8957 C   0  0  0  0  0  0  0  0  0  0  0  0
   34.4953   -5.1784   16.5597 C   0  0  0  0  0  0  0  0  0  0  0  0
   34.0823   -7.7532   16.0376 H   0  0  0  0  0  0  0  0  0  0  0  0
   36.1810   -2.5662   20.0956 C   0  0  0  0  0  0  0  0  0  0  0  0
   36.6231   -3.5775   20.9648 C   0  0  0  0  0  0  0  0  0  0  0  0
   35.7589   -4.1219   21.9154 C   0  0  0  0  0  0  0  0  0  0  0  0
   34.4337   -3.6886   22.0022 C   0  0  0  0  0  0  0  0  0  0  0  0
   33.9826   -2.6786   21.1312 C   0  0  0  0  0  0  0  0  0  0  0  0
   34.8506   -2.1223   20.1871 C   0  0  0  0  0  0  0  0  0  0  0  0
   33.6026   -4.2890   22.9599 O   0  0  0  0  0  0  0  0  0  0  0  0
   32.6614   -3.5966   23.7822 C   0  0  0  0  0  0  0  0  0  0  0  0
   33.2785   -3.2385   25.1400 C   0  0  0  0  0  0  0  0  0  0  0  0
   32.2816   -2.5667   26.0053 N   0  0  0  0  0  0  0  0  0  0  0  0
   31.5245   -1.5066   25.3054 C   0  0  0  0  0  0  0  0  0  0  0  0
   32.3748   -0.2514   25.0697 C   0  0  0  0  0  0  0  0  0  0  0  0
   32.9199    0.2771   26.3975 C   0  0  0  0  0  0  0  0  0  0  0  0
   33.6926   -0.8148   27.1400 C   0  0  0  0  0  0  0  0  0  0  0  0
   32.8427   -2.0896   27.2909 C   0  0  0  0  0  0  0  0  0  0  0  0
   37.4260   -1.9622   16.9333 H   0  0  0  0  0  0  0  0  0  0  0  0
   35.5493    1.5143   15.8357 H   0  0  0  0  0  0  0  0  0  0  0  0
   38.3271    3.6289   18.1886 H   0  0  0  0  0  0  0  0  0  0  0  0
   38.5749    1.6984   19.6352 H   0  0  0  0  0  0  0  0  0  0  0  0
   38.0286   -2.5753   19.0799 H   0  0  0  0  0  0  0  0  0  0  0  0
   37.4008   -6.7614   17.1205 H   0  0  0  0  0  0  0  0  0  0  0  0
   38.0995   -4.5036   17.6572 H   0  0  0  0  0  0  0  0  0  0  0  0
   34.2043   -3.1081   16.8319 H   0  0  0  0  0  0  0  0  0  0  0  0
   33.5305   -5.3585   16.2406 H   0  0  0  0  0  0  0  0  0  0  0  0
   37.5943   -3.9203   20.8997 H   0  0  0  0  0  0  0  0  0  0  0  0
   36.1018   -4.8512   22.5601 H   0  0  0  0  0  0  0  0  0  0  0  0
   33.0069   -2.3475   21.1900 H   0  0  0  0  0  0  0  0  0  0  0  0
   34.5125   -1.3812   19.5535 H   0  0  0  0  0  0  0  0  0  0  0  0
   31.8075   -4.2219   23.9397 H   0  0  0  0  0  0  0  0  0  0  0  0
   32.3765   -2.6917   23.2874 H   0  0  0  0  0  0  0  0  0  0  0  0
   34.1096   -2.5824   24.9864 H   0  0  0  0  0  0  0  0  0  0  0  0
   33.6010   -4.1386   25.6203 H   0  0  0  0  0  0  0  0  0  0  0  0
   30.6740   -1.2412   25.8980 H   0  0  0  0  0  0  0  0  0  0  0  0
   31.2280   -1.8883   24.3508 H   0  0  0  0  0  0  0  0  0  0  0  0
   31.7708    0.5031   24.6107 H   0  0  0  0  0  0  0  0  0  0  0  0
   33.1960   -0.5020   24.4312 H   0  0  0  0  0  0  0  0  0  0  0  0
   32.1034    0.6050   27.0064 H   0  0  0  0  0  0  0  0  0  0  0  0
   33.5844    1.0912   26.1960 H   0  0  0  0  0  0  0  0  0  0  0  0
   33.9589   -0.4552   28.1119 H   0  0  0  0  0  0  0  0  0  0  0  0
   34.5689   -1.0553   26.5751 H   0  0  0  0  0  0  0  0  0  0  0  0
   32.0339   -1.8829   27.9602 H   0  0  0  0  0  0  0  0  0  0  0  0
   33.4843   -2.8596   27.6656 H   0  0  0  0  0  0  0  0  0  0  0  0
  1  2  1  0  0  0  0
  1 36  1  6  0  0  0
  2  3  1  0  0  0  0
  3  4  2  0  0  0  0
  4  5  1  0  0  0  0
  4 37  1  0  0  0  0
  5  6  1  0  0  0  0
  5  7  2  0  0  0  0
  6 12  1  0  0  0  0
  7  8  1  0  0  0  0
  7 38  1  0  0  0  0
  8  9  2  0  0  0  0
  8 39  1  0  0  0  0
  9 10  1  0  0  0  0
  9  3  1  0  0  0  0
 10 11  1  0  0  0  0
 11 21  1  0  0  0  0
 11  1  1  0  0  0  0
 11 40  1  1  0  0  0
 13 14  1  0  0  0  0
 13 20  1  0  0  0  0
 14 15  2  0  0  0  0
 15 16  1  0  0  0  0
 15 41  1  0  0  0  0
 16 17  2  0  0  0  0
 16 42  1  0  0  0  0
 17  1  1  0  0  0  0
 17 18  1  0  0  0  0
 18 19  2  0  0  0  0
 18 43  1  0  0  0  0
 19 14  1  0  0  0  0
 19 44  1  0  0  0  0
 21 22  2  0  0  0  0
 22 23  1  0  0  0  0
 22 45  1  0  0  0  0
 23 24  2  0  0  0  0
 23 46  1  0  0  0  0
 24 27  1  0  0  0  0
 24 25  1  0  0  0  0
 25 26  2  0  0  0  0
 25 47  1  0  0  0  0
 26 21  1  0  0  0  0
 26 48  1  0  0  0  0
 27 28  1  0  0  0  0
 28 29  1  0  0  0  0
 28 49  1  0  0  0  0
 28 50  1  0  0  0  0
 29 30  1  0  0  0  0
 29 51  1  0  0  0  0
 29 52  1  0  0  0  0
 30 31  1  0  0  0  0
 31 32  1  0  0  0  0
 31 53  1  0  0  0  0
 31 54  1  0  0  0  0
 32 33  1  0  0  0  0
 32 55  1  0  0  0  0
 32 56  1  0  0  0  0
 33 34  1  0  0  0  0
 33 57  1  0  0  0  0
 33 58  1  0  0  0  0
 34 35  1  0  0  0  0
 34 59  1  0  0  0  0
 34 60  1  0  0  0  0
 35 30  1  0  0  0  0
 35 61  1  0  0  0  0
 35 62  1  0  0  0  0
M  END
>  <minimizedAffinity>
-9.20340

$$$$
CHEMBL304552
 OpenBabel01042214213D

 62 66  0  0  0  0  0  0  0  0999 V2000
   36.7746   -2.1448   17.5492 C   0  0  1  0  0  0  0  0  0  0  0  0
   35.4005   -1.0104   17.1392 S   0  0  0  0  0  0  0  0  0  0  0  0
   36.3914    0.4588   17.3939 C   0  0  0  0  0  0  0  0  0  0  0  0
   36.2273    1.5567   16.5377 C   0  0  0  0  0  0  0  0  0  0  0  0
   36.9071    2.7566   16.7931 C   0  0  0  0  0  0  0  0  0  0  0  0
   36.7280    3.8682   15.9723 O   0  0  0  0  0  0  0  0  0  0  0  0
   37.7630    2.8484   17.8939 C   0  0  0  0  0  0  0  0  0  0  0  0
   37.9378    1.7512   18.7417 C   0  0  0  0  0  0  0  0  0  0  0  0
   37.2716    0.5458   18.4875 C   0  0  0  0  0  0  0  0  0  0  0  0
   37.5262   -0.5532   19.3221 O   0  0  0  0  0  0  0  0  0  0  0  0
   37.2558   -1.9287   19.0104 C   0  0  1  0  0  0  0  0  0  0  0  0
   36.0980    3.8500   15.1766 H   0  0  0  0  0  0  0  0  0  0  0  0
   35.4716   -7.6702   16.7698 O   0  0  0  0  0  0  0  0  0  0  0  0
   35.7903   -6.3273   16.9549 C   0  0  0  0  0  0  0  0  0  0  0  0
   34.7785   -5.3648   16.8881 C   0  0  0  0  0  0  0  0  0  0  0  0
   35.0826   -4.0124   17.0645 C   0  0  0  0  0  0  0  0  0  0  0  0
   36.4162   -3.5989   17.2878 C   0  0  0  0  0  0  0  0  0  0  0  0
   37.4210   -4.5783   17.3702 C   0  0  0  0  0  0  0  0  0  0  0  0
   37.1107   -5.9311   17.2115 C   0  0  0  0  0  0  0  0  0  0  0  0
   36.1817   -8.3930   16.8262 H   0  0  0  0  0  0  0  0  0  0  0  0
   36.3158   -2.5119   20.0470 C   0  0  0  0  0  0  0  0  0  0  0  0
   36.7671   -3.5264   20.9076 C   0  0  0  0  0  0  0  0  0  0  0  0
   35.9074   -4.0881   21.8522 C   0  0  0  0  0  0  0  0  0  0  0  0
   34.5777   -3.6690   21.9413 C   0  0  0  0  0  0  0  0  0  0  0  0
   34.1175   -2.6558   21.0789 C   0  0  0  0  0  0  0  0  0  0  0  0
   34.9809   -2.0823   20.1409 C   0  0  0  0  0  0  0  0  0  0  0  0
   33.7518   -4.2864   22.8925 O   0  0  0  0  0  0  0  0  0  0  0  0
   32.6818   -3.6473   23.5913 C   0  0  0  0  0  0  0  0  0  0  0  0
   33.1555   -3.1119   24.9484 C   0  0  0  0  0  0  0  0  0  0  0  0
   32.7008   -1.7163   25.1464 N   0  0  0  0  0  0  0  0  0  0  0  0
   33.2729   -1.0842   26.3548 C   0  0  0  0  0  0  0  0  0  0  0  0
   32.6371   -1.6234   27.6429 C   0  0  0  0  0  0  0  0  0  0  0  0
   31.1209   -1.4244   27.6096 C   0  0  0  0  0  0  0  0  0  0  0  0
   30.5174   -2.0603   26.3558 C   0  0  0  0  0  0  0  0  0  0  0  0
   31.2285   -1.5612   25.0848 C   0  0  0  0  0  0  0  0  0  0  0  0
   37.5881   -1.9083   16.8956 H   0  0  0  0  0  0  0  0  0  0  0  0
   35.6050    1.4818   15.7178 H   0  0  0  0  0  0  0  0  0  0  0  0
   38.2675    3.7290   18.0814 H   0  0  0  0  0  0  0  0  0  0  0  0
   38.5616    1.8297   19.5601 H   0  0  0  0  0  0  0  0  0  0  0  0
   38.1783   -2.4686   19.0599 H   0  0  0  0  0  0  0  0  0  0  0  0
   33.8043   -5.6539   16.7080 H   0  0  0  0  0  0  0  0  0  0  0  0
   34.3276   -3.3096   17.0315 H   0  0  0  0  0  0  0  0  0  0  0  0
   38.3971   -4.2954   17.5496 H   0  0  0  0  0  0  0  0  0  0  0  0
   37.8559   -6.6414   17.2834 H   0  0  0  0  0  0  0  0  0  0  0  0
   37.7418   -3.8587   20.8407 H   0  0  0  0  0  0  0  0  0  0  0  0
   36.2569   -4.8196   22.4907 H   0  0  0  0  0  0  0  0  0  0  0  0
   33.1385   -2.3351   21.1395 H   0  0  0  0  0  0  0  0  0  0  0  0
   34.6360   -1.3390   19.5136 H   0  0  0  0  0  0  0  0  0  0  0  0
   31.8949   -4.3549   23.7494 H   0  0  0  0  0  0  0  0  0  0  0  0
   32.3328   -2.8247   23.0027 H   0  0  0  0  0  0  0  0  0  0  0  0
   34.2245   -3.1418   24.9844 H   0  0  0  0  0  0  0  0  0  0  0  0
   32.7415   -3.7225   25.7234 H   0  0  0  0  0  0  0  0  0  0  0  0
   33.1069   -0.0284   26.3036 H   0  0  0  0  0  0  0  0  0  0  0  0
   34.3181   -1.3114   26.3826 H   0  0  0  0  0  0  0  0  0  0  0  0
   33.0435   -1.1001   28.4831 H   0  0  0  0  0  0  0  0  0  0  0  0
   32.8494   -2.6689   27.7248 H   0  0  0  0  0  0  0  0  0  0  0  0
   30.9044   -0.3765   27.6105 H   0  0  0  0  0  0  0  0  0  0  0  0
   30.6942   -1.8933   28.4715 H   0  0  0  0  0  0  0  0  0  0  0  0
   29.4799   -1.8048   26.2991 H   0  0  0  0  0  0  0  0  0  0  0  0
   30.6402   -3.1213   26.4198 H   0  0  0  0  0  0  0  0  0  0  0  0
   31.0002   -0.5244   24.9511 H   0  0  0  0  0  0  0  0  0  0  0  0
   30.8779   -2.1560   24.2674 H   0  0  0  0  0  0  0  0  0  0  0  0
  1  2  1  0  0  0  0
  1 36  1  6  0  0  0
  2  3  1  0  0  0  0
  3  4  2  0  0  0  0
  4  5  1  0  0  0  0
  4 37  1  0  0  0  0
  5  6  1  0  0  0  0
  5  7  2  0  0  0  0
  6 12  1  0  0  0  0
  7  8  1  0  0  0  0
  7 38  1  0  0  0  0
  8  9  2  0  0  0  0
  8 39  1  0  0  0  0
  9 10  1  0  0  0  0
  9  3  1  0  0  0  0
 10 11  1  0  0  0  0
 11 21  1  0  0  0  0
 11  1  1  0  0  0  0
 11 40  1  1  0  0  0
 13 14  1  0  0  0  0
 13 20  1  0  0  0  0
 14 15  2  0  0  0  0
 15 16  1  0  0  0  0
 15 41  1  0  0  0  0
 16 17  2  0  0  0  0
 16 42  1  0  0  0  0
 17  1  1  0  0  0  0
 17 18  1  0  0  0  0
 18 19  2  0  0  0  0
 18 43  1  0  0  0  0
 19 14  1  0  0  0  0
 19 44  1  0  0  0  0
 21 22  2  0  0  0  0
 22 23  1  0  0  0  0
 22 45  1  0  0  0  0
 23 24  2  0  0  0  0
 23 46  1  0  0  0  0
 24 27  1  0  0  0  0
 24 25  1  0  0  0  0
 25 26  2  0  0  0  0
 25 47  1  0  0  0  0
 26 21  1  0  0  0  0
 26 48  1  0  0  0  0
 27 28  1  0  0  0  0
 28 29  1  0  0  0  0
 28 49  1  0  0  0  0
 28 50  1  0  0  0  0
 29 30  1  0  0  0  0
 29 51  1  0  0  0  0
 29 52  1  0  0  0  0
 30 31  1  0  0  0  0
 31 32  1  0  0  0  0
 31 53  1  0  0  0  0
 31 54  1  0  0  0  0
 32 33  1  0  0  0  0
 32 55  1  0  0  0  0
 32 56  1  0  0  0  0
 33 34  1  0  0  0  0
 33 57  1  0  0  0  0
 33 58  1  0  0  0  0
 34 35  1  0  0  0  0
 34 59  1  0  0  0  0
 34 60  1  0  0  0  0
 35 30  1  0  0  0  0
 35 61  1  0  0  0  0
 35 62  1  0  0  0  0
M  END
>  <minimizedAffinity>
-9.21535

$$$$
CHEMBL362718
 OpenBabel01042214213D

 60 64  0  0  0  0  0  0  0  0999 V2000
   37.5566   -1.6197   17.4736 C   0  0  1  0  0  0  0  0  0  0  0  0
   38.5167   -0.3547   16.5749 S   0  0  0  0  0  0  0  0  0  0  0  0
   37.1013    0.6650   16.1608 C   0  0  0  0  0  0  0  0  0  0  0  0
   37.0794    1.3214   14.9241 C   0  0  0  0  0  0  0  0  0  0  0  0
   36.0228    2.1829   14.6003 C   0  0  0  0  0  0  0  0  0  0  0  0
   35.9978    2.8487   13.3770 O   0  0  0  0  0  0  0  0  0  0  0  0
   34.9848    2.3809   15.5153 C   0  0  0  0  0  0  0  0  0  0  0  0
   34.9898    1.7059   16.7389 C   0  0  0  0  0  0  0  0  0  0  0  0
   36.0329    0.8304   17.0613 C   0  0  0  0  0  0  0  0  0  0  0  0
   35.9356    0.0850   18.2443 O   0  0  0  0  0  0  0  0  0  0  0  0
   36.8547   -0.9278   18.6756 C   0  0  1  0  0  0  0  0  0  0  0  0
   36.7337    2.7247   12.6916 H   0  0  0  0  0  0  0  0  0  0  0  0
   34.4278   -4.6417   13.7297 O   0  0  0  0  0  0  0  0  0  0  0  0
   35.1815   -3.9103   14.6448 C   0  0  0  0  0  0  0  0  0  0  0  0
   34.5604   -3.3625   15.7692 C   0  0  0  0  0  0  0  0  0  0  0  0
   35.3016   -2.6245   16.6967 C   0  0  0  0  0  0  0  0  0  0  0  0
   36.6861   -2.4218   16.5103 C   0  0  0  0  0  0  0  0  0  0  0  0
   37.2987   -2.9842   15.3751 C   0  0  0  0  0  0  0  0  0  0  0  0
   36.5537   -3.7199   14.4499 C   0  0  0  0  0  0  0  0  0  0  0  0
   34.8493   -5.0515   12.9043 H   0  0  0  0  0  0  0  0  0  0  0  0
   36.1525   -1.8595   19.6579 C   0  0  0  0  0  0  0  0  0  0  0  0
   36.8393   -2.7879   20.4695 C   0  0  0  0  0  0  0  0  0  0  0  0
   36.1424   -3.5985   21.3696 C   0  0  0  0  0  0  0  0  0  0  0  0
   34.7554   -3.4933   21.4982 C   0  0  0  0  0  0  0  0  0  0  0  0
   34.0649   -2.5523   20.7159 C   0  0  0  0  0  0  0  0  0  0  0  0
   34.7587   -1.7411   19.8142 C   0  0  0  0  0  0  0  0  0  0  0  0
   34.1064   -4.3358   22.4114 O   0  0  0  0  0  0  0  0  0  0  0  0
   32.8637   -4.0390   23.0439 C   0  0  0  0  0  0  0  0  0  0  0  0
   33.1072   -3.2796   24.3532 C   0  0  0  0  0  0  0  0  0  0  0  0
   31.9273   -2.4824   24.7686 N   0  0  0  0  0  0  0  0  0  0  0  0
   32.0053   -1.0649   24.3260 C   0  0  0  0  0  0  0  0  0  0  0  0
   32.3066   -0.0595   25.4512 C   0  0  0  0  0  0  0  0  0  0  0  0
   33.5990   -0.6907   26.5642 S   0  0  0  0  0  0  0  0  0  0  0  0
   32.6535   -2.1442   27.1619 C   0  0  0  0  0  0  0  0  0  0  0  0
   31.5566   -2.6271   26.1939 C   0  0  0  0  0  0  0  0  0  0  0  0
   38.1716   -2.3798   17.9083 H   0  0  0  0  0  0  0  0  0  0  0  0
   37.8446    1.1701   14.2484 H   0  0  0  0  0  0  0  0  0  0  0  0
   34.2131    3.0269   15.2867 H   0  0  0  0  0  0  0  0  0  0  0  0
   34.2192    1.8540   17.4092 H   0  0  0  0  0  0  0  0  0  0  0  0
   37.6688   -0.4896   19.2143 H   0  0  0  0  0  0  0  0  0  0  0  0
   33.5487   -3.5033   15.9162 H   0  0  0  0  0  0  0  0  0  0  0  0
   34.8327   -2.2246   17.5245 H   0  0  0  0  0  0  0  0  0  0  0  0
   38.3109   -2.8516   15.2240 H   0  0  0  0  0  0  0  0  0  0  0  0
   37.0168   -4.1238   13.6208 H   0  0  0  0  0  0  0  0  0  0  0  0
   37.8656   -2.8688   20.3975 H   0  0  0  0  0  0  0  0  0  0  0  0
   36.6580   -4.2822   21.9455 H   0  0  0  0  0  0  0  0  0  0  0  0
   33.0411   -2.4599   20.8077 H   0  0  0  0  0  0  0  0  0  0  0  0
   34.2416   -1.0450   19.2547 H   0  0  0  0  0  0  0  0  0  0  0  0
   32.3471   -4.9519   23.2551 H   0  0  0  0  0  0  0  0  0  0  0  0
   32.2746   -3.4302   22.3903 H   0  0  0  0  0  0  0  0  0  0  0  0
   33.9386   -2.6196   24.2188 H   0  0  0  0  0  0  0  0  0  0  0  0
   33.3013   -4.0011   25.1192 H   0  0  0  0  0  0  0  0  0  0  0  0
   31.0671   -0.8008   23.8845 H   0  0  0  0  0  0  0  0  0  0  0  0
   32.8233   -1.0058   23.6387 H   0  0  0  0  0  0  0  0  0  0  0  0
   31.4134    0.1124   26.0147 H   0  0  0  0  0  0  0  0  0  0  0  0
   32.6535    0.8512   25.0094 H   0  0  0  0  0  0  0  0  0  0  0  0
   32.1903   -1.8841   28.0907 H   0  0  0  0  0  0  0  0  0  0  0  0
   33.3537   -2.9476   27.2578 H   0  0  0  0  0  0  0  0  0  0  0  0
   30.6698   -2.0560   26.3737 H   0  0  0  0  0  0  0  0  0  0  0  0
   31.4089   -3.6707   26.3781 H   0  0  0  0  0  0  0  0  0  0  0  0
  1  2  1  0  0  0  0
  1 36  1  1  0  0  0
  2  3  1  0  0  0  0
  3  4  2  0  0  0  0
  4  5  1  0  0  0  0
  4 37  1  0  0  0  0
  5  6  1  0  0  0  0
  5  7  2  0  0  0  0
  6 12  1  0  0  0  0
  7  8  1  0  0  0  0
  7 38  1  0  0  0  0
  8  9  2  0  0  0  0
  8 39  1  0  0  0  0
  9 10  1  0  0  0  0
  9  3  1  0  0  0  0
 10 11  1  0  0  0  0
 11 21  1  0  0  0  0
 11  1  1  0  0  0  0
 11 40  1  1  0  0  0
 13 14  1  0  0  0  0
 13 20  1  0  0  0  0
 14 15  2  0  0  0  0
 15 16  1  0  0  0  0
 15 41  1  0  0  0  0
 16 17  2  0  0  0  0
 16 42  1  0  0  0  0
 17  1  1  0  0  0  0
 17 18  1  0  0  0  0
 18 19  2  0  0  0  0
 18 43  1  0  0  0  0
 19 14  1  0  0  0  0
 19 44  1  0  0  0  0
 21 22  2  0  0  0  0
 22 23  1  0  0  0  0
 22 45  1  0  0  0  0
 23 24  2  0  0  0  0
 23 46  1  0  0  0  0
 24 27  1  0  0  0  0
 24 25  1  0  0  0  0
 25 26  2  0  0  0  0
 25 47  1  0  0  0  0
 26 21  1  0  0  0  0
 26 48  1  0  0  0  0
 27 28  1  0  0  0  0
 28 29  1  0  0  0  0
 28 49  1  0  0  0  0
 28 50  1  0  0  0  0
 29 30  1  0  0  0  0
 29 51  1  0  0  0  0
 29 52  1  0  0  0  0
 30 31  1  0  0  0  0
 31 32  1  0  0  0  0
 31 53  1  0  0  0  0
 31 54  1  0  0  0  0
 32 33  1  0  0  0  0
 32 55  1  0  0  0  0
 32 56  1  0  0  0  0
 33 34  1  0  0  0  0
 34 35  1  0  0  0  0
 34 57  1  0  0  0  0
 34 58  1  0  0  0  0
 35 30  1  0  0  0  0
 35 59  1  0  0  0  0
 35 60  1  0  0  0  0
M  END
>  <minimizedAffinity>
-9.28015

$$$$
CHEMBL135
 OpenBabel01042214213D

 44 47  0  0  0  0  0  0  0  0999 V2000
   27.8797   -1.4149   26.0166 C   0  0  0  0  0  0  0  0  0  0  0  0
   27.6463   -0.3955   27.1778 C   0  0  2  0  0  0  0  0  0  0  0  0
   27.9813    1.0330   26.6976 C   0  0  0  0  0  0  0  0  0  0  0  0
   29.5007    1.2042   26.4382 C   0  0  0  0  0  0  0  0  0  0  0  0
   30.3882    0.7520   27.6403 C   0  0  2  0  0  0  0  0  0  0  0  0
   31.8928    0.8256   27.3734 C   0  0  0  0  0  0  0  0  0  0  0  0
   32.4376    1.8291   26.5426 C   0  0  0  0  0  0  0  0  0  0  0  0
   33.8175    1.9454   26.3685 C   0  0  0  0  0  0  0  0  0  0  0  0
   34.6873    1.0830   27.0382 C   0  0  0  0  0  0  0  0  0  0  0  0
   36.0657    1.1884   26.8651 O   0  0  0  0  0  0  0  0  0  0  0  0
   34.1727    0.1085   27.8928 C   0  0  0  0  0  0  0  0  0  0  0  0
   32.7879   -0.0172   28.0895 C   0  0  0  0  0  0  0  0  0  0  0  0
   32.3047   -1.1234   29.0031 C   0  0  0  0  0  0  0  0  0  0  0  0
   30.8270   -1.0026   29.3846 C   0  0  0  0  0  0  0  0  0  0  0  0
   29.9933   -0.6698   28.1412 C   0  0  1  0  0  0  0  0  0  0  0  0
   28.4814   -0.6773   28.4352 C   0  0  2  0  0  0  0  0  0  0  0  0
   27.8418   -1.9138   29.0564 C   0  0  0  0  0  0  0  0  0  0  0  0
   26.3419   -1.7586   28.7422 C   0  0  0  0  0  0  0  0  0  0  0  0
   26.2250   -0.5685   27.7548 C   0  0  2  0  0  0  0  0  0  0  0  0
   25.2292   -0.7408   26.7723 O   0  0  0  0  0  0  0  0  0  0  0  0
   36.4709    1.8865   26.2524 H   0  0  0  0  0  0  0  0  0  0  0  0
   25.2590   -1.6766   26.4458 H   0  0  0  0  0  0  0  0  0  0  0  0
   28.8666   -1.2876   25.6232 H   0  0  0  0  0  0  0  0  0  0  0  0
   27.1620   -1.2433   25.2417 H   0  0  0  0  0  0  0  0  0  0  0  0
   27.7703   -2.4117   26.3897 H   0  0  0  0  0  0  0  0  0  0  0  0
   27.6757    1.7324   27.4475 H   0  0  0  0  0  0  0  0  0  0  0  0
   27.4621    1.2084   25.7786 H   0  0  0  0  0  0  0  0  0  0  0  0
   29.6971    2.2374   26.2410 H   0  0  0  0  0  0  0  0  0  0  0  0
   29.7521    0.5796   25.6066 H   0  0  0  0  0  0  0  0  0  0  0  0
   30.1878    1.4646   28.4129 H   0  0  0  0  0  0  0  0  0  0  0  0
   31.8065    2.4858   26.0573 H   0  0  0  0  0  0  0  0  0  0  0  0
   34.1966    2.6724   25.7417 H   0  0  0  0  0  0  0  0  0  0  0  0
   34.8175   -0.5281   28.3868 H   0  0  0  0  0  0  0  0  0  0  0  0
   32.8883   -1.1007   29.8996 H   0  0  0  0  0  0  0  0  0  0  0  0
   32.4161   -2.0431   28.4678 H   0  0  0  0  0  0  0  0  0  0  0  0
   30.7100   -0.2240   30.1092 H   0  0  0  0  0  0  0  0  0  0  0  0
   30.4918   -1.9319   29.7955 H   0  0  0  0  0  0  0  0  0  0  0  0
   30.1934   -1.4186   27.4035 H   0  0  0  0  0  0  0  0  0  0  0  0
   28.4589    0.0917   29.1789 H   0  0  0  0  0  0  0  0  0  0  0  0
   28.0081   -1.9373   30.1131 H   0  0  0  0  0  0  0  0  0  0  0  0
   28.2500   -2.8248   28.6714 H   0  0  0  0  0  0  0  0  0  0  0  0
   25.7951   -1.5516   29.6383 H   0  0  0  0  0  0  0  0  0  0  0  0
   25.9381   -2.6552   28.3203 H   0  0  0  0  0  0  0  0  0  0  0  0
   25.8941    0.3200   28.2508 H   0  0  0  0  0  0  0  0  0  0  0  0
  1 23  1  0  0  0  0
  1 24  1  0  0  0  0
  1 25  1  0  0  0  0
  2  1  1  6  0  0  0
  2  3  1  0  0  0  0
  3  4  1  0  0  0  0
  3 26  1  0  0  0  0
  3 27  1  0  0  0  0
  4  5  1  0  0  0  0
  4 28  1  0  0  0  0
  4 29  1  0  0  0  0
  5  6  1  0  0  0  0
  5 30  1  1  0  0  0
  6  7  2  0  0  0  0
  7  8  1  0  0  0  0
  7 31  1  0  0  0  0
  8  9  2  0  0  0  0
  8 32  1  0  0  0  0
  9 10  1  0  0  0  0
  9 11  1  0  0  0  0
 10 21  1  0  0  0  0
 11 12  2  0  0  0  0
 11 33  1  0  0  0  0
 12 13  1  0  0  0  0
 12  6  1  0  0  0  0
 13 14  1  0  0  0  0
 13 34  1  0  0  0  0
 13 35  1  0  0  0  0
 14 15  1  0  0  0  0
 14 36  1  0  0  0  0
 14 37  1  0  0  0  0
 15 16  1  0  0  0  0
 15  5  1  0  0  0  0
 15 38  1  6  0  0  0
 16 17  1  0  0  0  0
 16  2  1  0  0  0  0
 16 39  1  1  0  0  0
 17 18  1  0  0  0  0
 17 40  1  0  0  0  0
 17 41  1  0  0  0  0
 18 19  1  0  0  0  0
 18 42  1  0  0  0  0
 18 43  1  0  0  0  0
 19 20  1  0  0  0  0
 19  2  1  0  0  0  0
 19 44  1  1  0  0  0
 20 22  1  0  0  0  0
M  END
>  <minimizedAffinity>
-9.37733

$$$$
CHEMBL304552
 OpenBabel01042214213D

 62 66  0  0  0  0  0  0  0  0999 V2000
   36.5844   -2.6124   17.7566 C   0  0  1  0  0  0  0  0  0  0  0  0
   35.2060   -1.4620   17.4267 S   0  0  0  0  0  0  0  0  0  0  0  0
   36.2153   -0.0002   17.6670 C   0  0  0  0  0  0  0  0  0  0  0  0
   35.9988    1.1156   16.8512 C   0  0  0  0  0  0  0  0  0  0  0  0
   36.6930    2.3099   17.0883 C   0  0  0  0  0  0  0  0  0  0  0  0
   36.4629    3.4341   16.2961 O   0  0  0  0  0  0  0  0  0  0  0  0
   37.6138    2.3799   18.1392 C   0  0  0  0  0  0  0  0  0  0  0  0
   37.8554    1.2580   18.9382 C   0  0  0  0  0  0  0  0  0  0  0  0
   37.1800    0.0562   18.6932 C   0  0  0  0  0  0  0  0  0  0  0  0
   37.5277   -1.0705   19.4546 O   0  0  0  0  0  0  0  0  0  0  0  0
   37.1148   -2.4199   19.2002 C   0  0  1  0  0  0  0  0  0  0  0  0
   35.7654    3.4292   15.5604 H   0  0  0  0  0  0  0  0  0  0  0  0
   35.0786   -8.0166   16.5950 O   0  0  0  0  0  0  0  0  0  0  0  0
   35.4413   -6.7029   16.8793 C   0  0  0  0  0  0  0  0  0  0  0  0
   34.4868   -5.6762   16.8537 C   0  0  0  0  0  0  0  0  0  0  0  0
   34.8629   -4.3608   17.1429 C   0  0  0  0  0  0  0  0  0  0  0  0
   36.1961   -4.0543   17.4763 C   0  0  0  0  0  0  0  0  0  0  0  0
   37.1513   -5.0921   17.4763 C   0  0  0  0  0  0  0  0  0  0  0  0
   36.7719   -6.4067   17.1881 C   0  0  0  0  0  0  0  0  0  0  0  0
   34.1264   -8.2597   16.3610 H   0  0  0  0  0  0  0  0  0  0  0  0
   36.1437   -2.8749   20.2742 C   0  0  0  0  0  0  0  0  0  0  0  0
   34.8832   -2.2605   20.3829 C   0  0  0  0  0  0  0  0  0  0  0  0
   33.9878   -2.6479   21.3827 C   0  0  0  0  0  0  0  0  0  0  0  0
   34.3359   -3.6669   22.2933 C   0  0  0  0  0  0  0  0  0  0  0  0
   35.5920   -4.2767   22.1866 C   0  0  0  0  0  0  0  0  0  0  0  0
   36.4876   -3.8905   21.1860 C   0  0  0  0  0  0  0  0  0  0  0  0
   33.4767   -4.0996   23.3179 O   0  0  0  0  0  0  0  0  0  0  0  0
   32.5003   -3.2934   23.9786 C   0  0  0  0  0  0  0  0  0  0  0  0
   32.7228   -3.3032   25.4940 C   0  0  0  0  0  0  0  0  0  0  0  0
   33.1534   -1.9636   25.9558 N   0  0  0  0  0  0  0  0  0  0  0  0
   32.3374   -0.8991   25.3350 C   0  0  0  0  0  0  0  0  0  0  0  0
   32.8531    0.5049   25.7112 C   0  0  0  0  0  0  0  0  0  0  0  0
   33.9287    0.4642   26.8014 C   0  0  0  0  0  0  0  0  0  0  0  0
   33.5155   -0.4739   27.9396 C   0  0  0  0  0  0  0  0  0  0  0  0
   33.0836   -1.8666   27.4293 C   0  0  0  0  0  0  0  0  0  0  0  0
   37.3815   -2.3803   17.0815 H   0  0  0  0  0  0  0  0  0  0  0  0
   35.3251    1.0590   16.0715 H   0  0  0  0  0  0  0  0  0  0  0  0
   38.1162    3.2620   18.3253 H   0  0  0  0  0  0  0  0  0  0  0  0
   38.5351    1.3161   19.7126 H   0  0  0  0  0  0  0  0  0  0  0  0
   37.9716   -3.0582   19.2574 H   0  0  0  0  0  0  0  0  0  0  0  0
   33.5048   -5.8917   16.6210 H   0  0  0  0  0  0  0  0  0  0  0  0
   34.1573   -3.6083   17.1117 H   0  0  0  0  0  0  0  0  0  0  0  0
   38.1381   -4.8795   17.6907 H   0  0  0  0  0  0  0  0  0  0  0  0
   37.4765   -7.1606   17.2034 H   0  0  0  0  0  0  0  0  0  0  0  0
   34.6175   -1.5170   19.7183 H   0  0  0  0  0  0  0  0  0  0  0  0
   33.0676   -2.1864   21.4553 H   0  0  0  0  0  0  0  0  0  0  0  0
   35.8587   -5.0181   22.8531 H   0  0  0  0  0  0  0  0  0  0  0  0
   37.4074   -4.3530   21.1151 H   0  0  0  0  0  0  0  0  0  0  0  0
   31.5249   -3.6778   23.7647 H   0  0  0  0  0  0  0  0  0  0  0  0
   32.5897   -2.2874   23.6251 H   0  0  0  0  0  0  0  0  0  0  0  0
   33.4791   -4.0205   25.7357 H   0  0  0  0  0  0  0  0  0  0  0  0
   31.8055   -3.5622   25.9801 H   0  0  0  0  0  0  0  0  0  0  0  0
   31.3256   -0.9982   25.6687 H   0  0  0  0  0  0  0  0  0  0  0  0
   32.4018   -1.0053   24.2722 H   0  0  0  0  0  0  0  0  0  0  0  0
   32.0293    1.0895   26.0640 H   0  0  0  0  0  0  0  0  0  0  0  0
   33.2946    0.9336   24.8359 H   0  0  0  0  0  0  0  0  0  0  0  0
   34.0686    1.4501   27.1929 H   0  0  0  0  0  0  0  0  0  0  0  0
   34.8388    0.1011   26.3714 H   0  0  0  0  0  0  0  0  0  0  0  0
   32.6964   -0.0326   28.4681 H   0  0  0  0  0  0  0  0  0  0  0  0
   34.3657   -0.6091   28.5751 H   0  0  0  0  0  0  0  0  0  0  0  0
   32.0765   -2.0512   27.7402 H   0  0  0  0  0  0  0  0  0  0  0  0
   33.7550   -2.5915   27.8400 H   0  0  0  0  0  0  0  0  0  0  0  0
  1  2  1  0  0  0  0
  1 36  1  6  0  0  0
  2  3  1  0  0  0  0
  3  4  2  0  0  0  0
  4  5  1  0  0  0  0
  4 37  1  0  0  0  0
  5  6  1  0  0  0  0
  5  7  2  0  0  0  0
  6 12  1  0  0  0  0
  7  8  1  0  0  0  0
  7 38  1  0  0  0  0
  8  9  2  0  0  0  0
  8 39  1  0  0  0  0
  9 10  1  0  0  0  0
  9  3  1  0  0  0  0
 10 11  1  0  0  0  0
 11 21  1  0  0  0  0
 11  1  1  0  0  0  0
 11 40  1  1  0  0  0
 13 14  1  0  0  0  0
 13 20  1  0  0  0  0
 14 15  2  0  0  0  0
 15 16  1  0  0  0  0
 15 41  1  0  0  0  0
 16 17  2  0  0  0  0
 16 42  1  0  0  0  0
 17  1  1  0  0  0  0
 17 18  1  0  0  0  0
 18 19  2  0  0  0  0
 18 43  1  0  0  0  0
 19 14  1  0  0  0  0
 19 44  1  0  0  0  0
 21 22  2  0  0  0  0
 22 23  1  0  0  0  0
 22 45  1  0  0  0  0
 23 24  2  0  0  0  0
 23 46  1  0  0  0  0
 24 27  1  0  0  0  0
 24 25  1  0  0  0  0
 25 26  2  0  0  0  0
 25 47  1  0  0  0  0
 26 21  1  0  0  0  0
 26 48  1  0  0  0  0
 27 28  1  0  0  0  0
 28 29  1  0  0  0  0
 28 49  1  0  0  0  0
 28 50  1  0  0  0  0
 29 30  1  0  0  0  0
 29 51  1  0  0  0  0
 29 52  1  0  0  0  0
 30 31  1  0  0  0  0
 31 32  1  0  0  0  0
 31 53  1  0  0  0  0
 31 54  1  0  0  0  0
 32 33  1  0  0  0  0
 32 55  1  0  0  0  0
 32 56  1  0  0  0  0
 33 34  1  0  0  0  0
 33 57  1  0  0  0  0
 33 58  1  0  0  0  0
 34 35  1  0  0  0  0
 34 59  1  0  0  0  0
 34 60  1  0  0  0  0
 35 30  1  0  0  0  0
 35 61  1  0  0  0  0
 35 62  1  0  0  0  0
M  END
>  <minimizedAffinity>
-9.38431

$$$$
CHEMBL135
 OpenBabel01042214213D

 44 47  0  0  0  0  0  0  0  0999 V2000
   33.0201   -0.4106   29.3908 C   0  0  0  0  0  0  0  0  0  0  0  0
   33.1175    0.4825   28.1122 C   0  0  2  0  0  0  0  0  0  0  0  0
   32.2041    1.7178   28.2637 C   0  0  0  0  0  0  0  0  0  0  0  0
   30.7048    1.3218   28.2493 C   0  0  0  0  0  0  0  0  0  0  0  0
   30.3119    0.4316   27.0285 C   0  0  2  0  0  0  0  0  0  0  0  0
   28.8591   -0.0473   27.0414 C   0  0  0  0  0  0  0  0  0  0  0  0
   27.8308    0.7575   27.5791 C   0  0  0  0  0  0  0  0  0  0  0  0
   26.4961    0.3550   27.5136 C   0  0  0  0  0  0  0  0  0  0  0  0
   26.1518   -0.8445   26.8877 C   0  0  0  0  0  0  0  0  0  0  0  0
   24.8225   -1.2565   26.8233 O   0  0  0  0  0  0  0  0  0  0  0  0
   27.1472   -1.6370   26.3169 C   0  0  0  0  0  0  0  0  0  0  0  0
   28.4947   -1.2437   26.3631 C   0  0  0  0  0  0  0  0  0  0  0  0
   29.5207   -2.1757   25.7544 C   0  0  0  0  0  0  0  0  0  0  0  0
   30.9045   -1.5417   25.5902 C   0  0  0  0  0  0  0  0  0  0  0  0
   31.2820   -0.7770   26.8648 C   0  0  1  0  0  0  0  0  0  0  0  0
   32.7237   -0.2376   26.8144 C   0  0  2  0  0  0  0  0  0  0  0  0
   33.8764   -1.1961   26.5377 C   0  0  0  0  0  0  0  0  0  0  0  0
   35.1206   -0.4436   27.0459 C   0  0  0  0  0  0  0  0  0  0  0  0
   34.5956    0.8035   27.8035 C   0  0  2  0  0  0  0  0  0  0  0  0
   35.3551    1.1379   28.9428 O   0  0  0  0  0  0  0  0  0  0  0  0
   24.0760   -0.7027   27.2270 H   0  0  0  0  0  0  0  0  0  0  0  0
   35.5904    0.3054   29.4273 H   0  0  0  0  0  0  0  0  0  0  0  0
   31.9928   -0.6278   29.5968 H   0  0  0  0  0  0  0  0  0  0  0  0
   33.4485    0.1090   30.2223 H   0  0  0  0  0  0  0  0  0  0  0  0
   33.5523   -1.3246   29.2288 H   0  0  0  0  0  0  0  0  0  0  0  0
   32.3935    2.3915   27.4543 H   0  0  0  0  0  0  0  0  0  0  0  0
   32.4197    2.1812   29.2037 H   0  0  0  0  0  0  0  0  0  0  0  0
   30.1178    2.2160   28.2203 H   0  0  0  0  0  0  0  0  0  0  0  0
   30.5209    0.7466   29.1326 H   0  0  0  0  0  0  0  0  0  0  0  0
   30.4056    1.0746   26.1784 H   0  0  0  0  0  0  0  0  0  0  0  0
   28.0697    1.6561   28.0269 H   0  0  0  0  0  0  0  0  0  0  0  0
   25.7602    0.9468   27.9298 H   0  0  0  0  0  0  0  0  0  0  0  0
   26.8905   -2.5234   25.8549 H   0  0  0  0  0  0  0  0  0  0  0  0
   29.1713   -2.4795   24.7898 H   0  0  0  0  0  0  0  0  0  0  0  0
   29.6318   -3.0012   26.4260 H   0  0  0  0  0  0  0  0  0  0  0  0
   30.8887   -0.8648   24.7617 H   0  0  0  0  0  0  0  0  0  0  0  0
   31.6264   -2.3116   25.4141 H   0  0  0  0  0  0  0  0  0  0  0  0
   31.2089   -1.4571   27.6876 H   0  0  0  0  0  0  0  0  0  0  0  0
   32.6292    0.3922   25.9545 H   0  0  0  0  0  0  0  0  0  0  0  0
   33.9575   -1.4005   25.4905 H   0  0  0  0  0  0  0  0  0  0  0  0
   33.7460   -2.1443   27.0160 H   0  0  0  0  0  0  0  0  0  0  0  0
   35.7352   -0.1453   26.2224 H   0  0  0  0  0  0  0  0  0  0  0  0
   35.7167   -1.0632   27.6828 H   0  0  0  0  0  0  0  0  0  0  0  0
   34.6871    1.6889   27.2097 H   0  0  0  0  0  0  0  0  0  0  0  0
  1 23  1  0  0  0  0
  1 24  1  0  0  0  0
  1 25  1  0  0  0  0
  2  1  1  1  0  0  0
  2  3  1  0  0  0  0
  3  4  1  0  0  0  0
  3 26  1  0  0  0  0
  3 27  1  0  0  0  0
  4  5  1  0  0  0  0
  4 28  1  0  0  0  0
  4 29  1  0  0  0  0
  5  6  1  0  0  0  0
  5 30  1  6  0  0  0
  6  7  2  0  0  0  0
  7  8  1  0  0  0  0
  7 31  1  0  0  0  0
  8  9  2  0  0  0  0
  8 32  1  0  0  0  0
  9 10  1  0  0  0  0
  9 11  1  0  0  0  0
 10 21  1  0  0  0  0
 11 12  2  0  0  0  0
 11 33  1  0  0  0  0
 12 13  1  0  0  0  0
 12  6  1  0  0  0  0
 13 14  1  0  0  0  0
 13 34  1  0  0  0  0
 13 35  1  0  0  0  0
 14 15  1  0  0  0  0
 14 36  1  0  0  0  0
 14 37  1  0  0  0  0
 15 16  1  0  0  0  0
 15  5  1  0  0  0  0
 15 38  1  1  0  0  0
 16 17  1  0  0  0  0
 16  2  1  0  0  0  0
 16 39  1  6  0  0  0
 17 18  1  0  0  0  0
 17 40  1  0  0  0  0
 17 41  1  0  0  0  0
 18 19  1  0  0  0  0
 18 42  1  0  0  0  0
 18 43  1  0  0  0  0
 19 20  1  0  0  0  0
 19  2  1  0  0  0  0
 19 44  1  6  0  0  0
 20 22  1  0  0  0  0
M  END
>  <minimizedAffinity>
-9.39827

$$$$
CHEMBL185114
 OpenBabel01042214213D

 60 64  0  0  0  0  0  0  0  0999 V2000
   38.0003   -1.0731   17.3142 C   0  0  1  0  0  0  0  0  0  0  0  0
   38.8879    0.1911   16.3488 S   0  0  0  0  0  0  0  0  0  0  0  0
   37.4254    1.1413   15.9533 C   0  0  0  0  0  0  0  0  0  0  0  0
   37.3072    1.7087   14.6797 C   0  0  0  0  0  0  0  0  0  0  0  0
   36.2114    2.5170   14.3655 C   0  0  0  0  0  0  0  0  0  0  0  0
   36.1124    3.0796   13.0969 O   0  0  0  0  0  0  0  0  0  0  0  0
   35.2297    2.7605   15.3340 C   0  0  0  0  0  0  0  0  0  0  0  0
   35.3324    2.1741   16.5980 C   0  0  0  0  0  0  0  0  0  0  0  0
   36.4136    1.3413   16.9067 C   0  0  0  0  0  0  0  0  0  0  0  0
   36.4048    0.6619   18.1317 O   0  0  0  0  0  0  0  0  0  0  0  0
   37.2911   -0.3977   18.5208 C   0  0  1  0  0  0  0  0  0  0  0  0
   35.3214    3.6555   12.8321 H   0  0  0  0  0  0  0  0  0  0  0  0
   34.9941   -4.4778   13.8149 O   0  0  0  0  0  0  0  0  0  0  0  0
   35.7172   -3.6457   14.6656 C   0  0  0  0  0  0  0  0  0  0  0  0
   37.1097   -3.5974   14.5976 C   0  0  0  0  0  0  0  0  0  0  0  0
   37.8244   -2.7645   15.4603 C   0  0  0  0  0  0  0  0  0  0  0  0
   37.1594   -1.9706   16.4132 C   0  0  0  0  0  0  0  0  0  0  0  0
   35.7539   -2.0160   16.4604 C   0  0  0  0  0  0  0  0  0  0  0  0
   35.0444   -2.8519   15.5958 C   0  0  0  0  0  0  0  0  0  0  0  0
   35.4513   -5.0607   13.1246 H   0  0  0  0  0  0  0  0  0  0  0  0
   36.5745   -1.4088   19.4044 C   0  0  0  0  0  0  0  0  0  0  0  0
   35.1798   -1.3580   19.6029 C   0  0  0  0  0  0  0  0  0  0  0  0
   34.5382   -2.3020   20.4085 C   0  0  0  0  0  0  0  0  0  0  0  0
   35.2809   -3.3192   21.0391 C   0  0  0  0  0  0  0  0  0  0  0  0
   36.6662   -3.3667   20.8523 C   0  0  0  0  0  0  0  0  0  0  0  0
   37.3083   -2.4166   20.0548 C   0  0  0  0  0  0  0  0  0  0  0  0
   34.6889   -4.2999   21.8506 O   0  0  0  0  0  0  0  0  0  0  0  0
   33.4149   -4.1932   22.4852 C   0  0  0  0  0  0  0  0  0  0  0  0
   33.5479   -3.4713   23.8287 C   0  0  0  0  0  0  0  0  0  0  0  0
   32.2254   -3.1370   24.3904 N   0  0  0  0  0  0  0  0  0  0  0  0
   31.7406   -1.8404   23.8960 C   0  0  0  0  0  0  0  0  0  0  0  0
   31.0692   -1.1126   25.0556 C   0  0  0  0  0  0  0  0  0  0  0  0
   31.1236   -2.0738   26.2272 C   0  0  1  0  0  0  0  0  0  0  0  0
   29.9153   -2.7788   26.3344 O   0  0  0  0  0  0  0  0  0  0  0  0
   32.2388   -3.0301   25.8537 C   0  0  0  0  0  0  0  0  0  0  0  0
   29.2945   -2.1970   26.8398 H   0  0  0  0  0  0  0  0  0  0  0  0
   38.6752   -1.7731   17.7608 H   0  0  0  0  0  0  0  0  0  0  0  0
   38.0332    1.5293   13.9686 H   0  0  0  0  0  0  0  0  0  0  0  0
   34.4294    3.3738   15.1138 H   0  0  0  0  0  0  0  0  0  0  0  0
   34.6063    2.3563   17.3084 H   0  0  0  0  0  0  0  0  0  0  0  0
   38.0732    0.0486   19.0987 H   0  0  0  0  0  0  0  0  0  0  0  0
   37.6123   -4.1783   13.9084 H   0  0  0  0  0  0  0  0  0  0  0  0
   38.8540   -2.7305   15.3985 H   0  0  0  0  0  0  0  0  0  0  0  0
   35.2443   -1.4279   17.1382 H   0  0  0  0  0  0  0  0  0  0  0  0
   34.0140   -2.8830   15.6450 H   0  0  0  0  0  0  0  0  0  0  0  0
   34.6265   -0.6151   19.1480 H   0  0  0  0  0  0  0  0  0  0  0  0
   33.5160   -2.2539   20.5421 H   0  0  0  0  0  0  0  0  0  0  0  0
   37.2186   -4.1100   21.3076 H   0  0  0  0  0  0  0  0  0  0  0  0
   38.3334   -2.4547   19.9416 H   0  0  0  0  0  0  0  0  0  0  0  0
   33.0193   -5.1738   22.6493 H   0  0  0  0  0  0  0  0  0  0  0  0
   32.7577   -3.6331   21.8533 H   0  0  0  0  0  0  0  0  0  0  0  0
   34.1043   -2.5686   23.6858 H   0  0  0  0  0  0  0  0  0  0  0  0
   34.0512   -4.1216   24.5133 H   0  0  0  0  0  0  0  0  0  0  0  0
   31.0347   -1.9941   23.1067 H   0  0  0  0  0  0  0  0  0  0  0  0
   32.5554   -1.2602   23.5160 H   0  0  0  0  0  0  0  0  0  0  0  0
   30.0541   -0.8782   24.8117 H   0  0  0  0  0  0  0  0  0  0  0  0
   31.5590   -0.1879   25.2792 H   0  0  0  0  0  0  0  0  0  0  0  0
   31.2836   -1.5784   27.1620 H   0  0  0  0  0  0  0  0  0  0  0  0
   32.0665   -3.9892   26.2957 H   0  0  0  0  0  0  0  0  0  0  0  0
   33.1851   -2.6767   26.2066 H   0  0  0  0  0  0  0  0  0  0  0  0
  1  2  1  0  0  0  0
  1 37  1  1  0  0  0
  2  3  1  0  0  0  0
  3  4  2  0  0  0  0
  4  5  1  0  0  0  0
  4 38  1  0  0  0  0
  5  6  1  0  0  0  0
  5  7  2  0  0  0  0
  6 12  1  0  0  0  0
  7  8  1  0  0  0  0
  7 39  1  0  0  0  0
  8  9  2  0  0  0  0
  8 40  1  0  0  0  0
  9 10  1  0  0  0  0
  9  3  1  0  0  0  0
 10 11  1  0  0  0  0
 11 21  1  0  0  0  0
 11  1  1  0  0  0  0
 11 41  1  1  0  0  0
 13 14  1  0  0  0  0
 13 20  1  0  0  0  0
 14 15  2  0  0  0  0
 15 16  1  0  0  0  0
 15 42  1  0  0  0  0
 16 17  2  0  0  0  0
 16 43  1  0  0  0  0
 17  1  1  0  0  0  0
 17 18  1  0  0  0  0
 18 19  2  0  0  0  0
 18 44  1  0  0  0  0
 19 14  1  0  0  0  0
 19 45  1  0  0  0  0
 21 22  2  0  0  0  0
 22 23  1  0  0  0  0
 22 46  1  0  0  0  0
 23 24  2  0  0  0  0
 23 47  1  0  0  0  0
 24 27  1  0  0  0  0
 24 25  1  0  0  0  0
 25 26  2  0  0  0  0
 25 48  1  0  0  0  0
 26 21  1  0  0  0  0
 26 49  1  0  0  0  0
 27 28  1  0  0  0  0
 28 29  1  0  0  0  0
 28 50  1  0  0  0  0
 28 51  1  0  0  0  0
 29 30  1  0  0  0  0
 29 52  1  0  0  0  0
 29 53  1  0  0  0  0
 30 31  1  0  0  0  0
 31 32  1  0  0  0  0
 31 54  1  0  0  0  0
 31 55  1  0  0  0  0
 32 33  1  0  0  0  0
 32 56  1  0  0  0  0
 32 57  1  0  0  0  0
 33 34  1  0  0  0  0
 33 35  1  0  0  0  0
 33 58  1  1  0  0  0
 34 36  1  0  0  0  0
 35 30  1  0  0  0  0
 35 59  1  0  0  0  0
 35 60  1  0  0  0  0
M  END
>  <minimizedAffinity>
-9.49347

$$$$
CHEMBL184679
 OpenBabel01042214213D

 59 63  0  0  0  0  0  0  0  0999 V2000
   37.8067   -1.2209   17.4688 C   0  0  1  0  0  0  0  0  0  0  0  0
   38.7046    0.0513   16.5211 S   0  0  0  0  0  0  0  0  0  0  0  0
   37.2421    0.9998   16.0994 C   0  0  0  0  0  0  0  0  0  0  0  0
   37.1540    1.5847   14.8310 C   0  0  0  0  0  0  0  0  0  0  0  0
   36.0589    2.3945   14.5022 C   0  0  0  0  0  0  0  0  0  0  0  0
   35.9739    2.9978   13.2483 O   0  0  0  0  0  0  0  0  0  0  0  0
   35.0517    2.6169   15.4452 C   0  0  0  0  0  0  0  0  0  0  0  0
   35.1233    2.0127   16.7028 C   0  0  0  0  0  0  0  0  0  0  0  0
   36.2015    1.1819   17.0292 C   0  0  0  0  0  0  0  0  0  0  0  0
   36.1646    0.4898   18.2476 O   0  0  0  0  0  0  0  0  0  0  0  0
   37.0770   -0.5382   18.6594 C   0  0  1  0  0  0  0  0  0  0  0  0
   36.6885    2.8559   12.5413 H   0  0  0  0  0  0  0  0  0  0  0  0
   34.8879   -4.4910   13.7648 O   0  0  0  0  0  0  0  0  0  0  0  0
   35.5918   -3.7116   14.6811 C   0  0  0  0  0  0  0  0  0  0  0  0
   36.9860   -3.6118   14.6128 C   0  0  0  0  0  0  0  0  0  0  0  0
   37.6787   -2.8202   15.5334 C   0  0  0  0  0  0  0  0  0  0  0  0
   36.9919   -2.1153   16.5409 C   0  0  0  0  0  0  0  0  0  0  0  0
   35.5856   -2.2190   16.5947 C   0  0  0  0  0  0  0  0  0  0  0  0
   34.8968   -3.0182   15.6761 C   0  0  0  0  0  0  0  0  0  0  0  0
   35.3556   -4.9761   13.0074 H   0  0  0  0  0  0  0  0  0  0  0  0
   36.3926   -1.5419   19.5737 C   0  0  0  0  0  0  0  0  0  0  0  0
   37.1230   -2.5169   20.2786 C   0  0  0  0  0  0  0  0  0  0  0  0
   36.4704   -3.4514   21.0876 C   0  0  0  0  0  0  0  0  0  0  0  0
   35.0703   -3.4270   21.2151 C   0  0  0  0  0  0  0  0  0  0  0  0
   34.3427   -2.4503   20.5268 C   0  0  0  0  0  0  0  0  0  0  0  0
   34.9921   -1.5263   19.7032 C   0  0  0  0  0  0  0  0  0  0  0  0
   34.3643   -4.3457   22.0099 O   0  0  0  0  0  0  0  0  0  0  0  0
   33.1292   -4.0796   22.6767 C   0  0  0  0  0  0  0  0  0  0  0  0
   33.3895   -3.4420   24.0465 C   0  0  0  0  0  0  0  0  0  0  0  0
   32.1206   -3.0528   24.6936 N   0  0  0  0  0  0  0  0  0  0  0  0
   31.5887   -1.7673   24.1971 C   0  0  0  0  0  0  0  0  0  0  0  0
   31.0512   -0.9866   25.3996 C   0  0  0  0  0  0  0  0  0  0  0  0
   31.2185   -1.9141   26.5890 C   0  0  1  0  0  0  0  0  0  0  0  0
   30.0322   -2.5919   26.8288 F   0  0  0  0  0  0  0  0  0  0  0  0
   32.2892   -2.8900   26.1431 C   0  0  0  0  0  0  0  0  0  0  0  0
   38.4625   -1.9271   17.9338 H   0  0  0  0  0  0  0  0  0  0  0  0
   37.8982    1.4190   14.1355 H   0  0  0  0  0  0  0  0  0  0  0  0
   34.2538    3.2285   15.2122 H   0  0  0  0  0  0  0  0  0  0  0  0
   34.3767    2.1799   17.3954 H   0  0  0  0  0  0  0  0  0  0  0  0
   37.8488   -0.0589   19.2247 H   0  0  0  0  0  0  0  0  0  0  0  0
   37.5037   -4.1236   13.8814 H   0  0  0  0  0  0  0  0  0  0  0  0
   38.7067   -2.7514   15.4741 H   0  0  0  0  0  0  0  0  0  0  0  0
   35.0613   -1.7013   17.3172 H   0  0  0  0  0  0  0  0  0  0  0  0
   33.8694   -3.0963   15.7334 H   0  0  0  0  0  0  0  0  0  0  0  0
   38.1515   -2.5421   20.1973 H   0  0  0  0  0  0  0  0  0  0  0  0
   37.0193   -4.1634   21.5943 H   0  0  0  0  0  0  0  0  0  0  0  0
   33.3164   -2.4116   20.6281 H   0  0  0  0  0  0  0  0  0  0  0  0
   34.4387   -0.8260   19.1852 H   0  0  0  0  0  0  0  0  0  0  0  0
   32.5956   -4.9974   22.8104 H   0  0  0  0  0  0  0  0  0  0  0  0
   32.5520   -3.4027   22.0822 H   0  0  0  0  0  0  0  0  0  0  0  0
   33.9991   -2.5720   23.9183 H   0  0  0  0  0  0  0  0  0  0  0  0
   33.8865   -4.1568   24.6686 H   0  0  0  0  0  0  0  0  0  0  0  0
   30.7994   -1.9461   23.4971 H   0  0  0  0  0  0  0  0  0  0  0  0
   32.3578   -1.2105   23.7038 H   0  0  0  0  0  0  0  0  0  0  0  0
   30.0191   -0.7431   25.2569 H   0  0  0  0  0  0  0  0  0  0  0  0
   31.5719   -0.0623   25.5392 H   0  0  0  0  0  0  0  0  0  0  0  0
   31.4761   -1.3958   27.4889 H   0  0  0  0  0  0  0  0  0  0  0  0
   32.1633   -3.8300   26.6386 H   0  0  0  0  0  0  0  0  0  0  0  0
   33.2678   -2.5298   26.3828 H   0  0  0  0  0  0  0  0  0  0  0  0
  1  2  1  0  0  0  0
  1 36  1  1  0  0  0
  2  3  1  0  0  0  0
  3  4  2  0  0  0  0
  4  5  1  0  0  0  0
  4 37  1  0  0  0  0
  5  6  1  0  0  0  0
  5  7  2  0  0  0  0
  6 12  1  0  0  0  0
  7  8  1  0  0  0  0
  7 38  1  0  0  0  0
  8  9  2  0  0  0  0
  8 39  1  0  0  0  0
  9 10  1  0  0  0  0
  9  3  1  0  0  0  0
 10 11  1  0  0  0  0
 11 21  1  0  0  0  0
 11  1  1  0  0  0  0
 11 40  1  1  0  0  0
 13 14  1  0  0  0  0
 13 20  1  0  0  0  0
 14 15  2  0  0  0  0
 15 16  1  0  0  0  0
 15 41  1  0  0  0  0
 16 17  2  0  0  0  0
 16 42  1  0  0  0  0
 17  1  1  0  0  0  0
 17 18  1  0  0  0  0
 18 19  2  0  0  0  0
 18 43  1  0  0  0  0
 19 14  1  0  0  0  0
 19 44  1  0  0  0  0
 21 22  2  0  0  0  0
 22 23  1  0  0  0  0
 22 45  1  0  0  0  0
 23 24  2  0  0  0  0
 23 46  1  0  0  0  0
 24 27  1  0  0  0  0
 24 25  1  0  0  0  0
 25 26  2  0  0  0  0
 25 47  1  0  0  0  0
 26 21  1  0  0  0  0
 26 48  1  0  0  0  0
 27 28  1  0  0  0  0
 28 29  1  0  0  0  0
 28 49  1  0  0  0  0
 28 50  1  0  0  0  0
 29 30  1  0  0  0  0
 29 51  1  0  0  0  0
 29 52  1  0  0  0  0
 30 31  1  0  0  0  0
 31 32  1  0  0  0  0
 31 53  1  0  0  0  0
 31 54  1  0  0  0  0
 32 33  1  0  0  0  0
 32 55  1  0  0  0  0
 32 56  1  0  0  0  0
 33 34  1  0  0  0  0
 33 35  1  0  0  0  0
 33 57  1  1  0  0  0
 35 30  1  0  0  0  0
 35 58  1  0  0  0  0
 35 59  1  0  0  0  0
M  END
>  <minimizedAffinity>
-9.50178

$$$$
CHEMBL135
 OpenBabel01042214213D

 44 47  0  0  0  0  0  0  0  0999 V2000
   33.6417    0.7168   26.1974 C   0  0  0  0  0  0  0  0  0  0  0  0
   33.7178   -0.4445   27.2403 C   0  0  2  0  0  0  0  0  0  0  0  0
   33.2246   -1.7593   26.5989 C   0  0  0  0  0  0  0  0  0  0  0  0
   31.7033   -1.7115   26.3017 C   0  0  0  0  0  0  0  0  0  0  0  0
   30.8451   -1.2870   27.5347 C   0  0  2  0  0  0  0  0  0  0  0  0
   29.3506   -1.1441   27.2412 C   0  0  0  0  0  0  0  0  0  0  0  0
   28.7104   -1.9754   26.2961 C   0  0  0  0  0  0  0  0  0  0  0  0
   27.3318   -1.9001   26.0915 C   0  0  0  0  0  0  0  0  0  0  0  0
   26.5556   -1.0150   26.8418 C   0  0  0  0  0  0  0  0  0  0  0  0
   25.1798   -0.9292   26.6395 O   0  0  0  0  0  0  0  0  0  0  0  0
   27.1615   -0.2111   27.8068 C   0  0  0  0  0  0  0  0  0  0  0  0
   28.5456   -0.2802   28.0349 C   0  0  0  0  0  0  0  0  0  0  0  0
   29.1348    0.6510   29.0729 C   0  0  0  0  0  0  0  0  0  0  0  0
   30.5760    0.3070   29.4583 C   0  0  0  0  0  0  0  0  0  0  0  0
   31.3964    0.0115   28.1968 C   0  0  1  0  0  0  0  0  0  0  0  0
   32.8894   -0.2006   28.5100 C   0  0  2  0  0  0  0  0  0  0  0  0
   33.6577    0.8717   29.2742 C   0  0  0  0  0  0  0  0  0  0  0  0
   35.1355    0.5671   28.9648 C   0  0  0  0  0  0  0  0  0  0  0  0
   35.1334   -0.5131   27.8521 C   0  0  2  0  0  0  0  0  0  0  0  0
   36.1690   -0.3592   26.9085 O   0  0  0  0  0  0  0  0  0  0  0  0
   24.7094   -1.5005   25.9472 H   0  0  0  0  0  0  0  0  0  0  0  0
   36.2621    0.6031   26.6883 H   0  0  0  0  0  0  0  0  0  0  0  0
   32.6577    0.7566   25.7790 H   0  0  0  0  0  0  0  0  0  0  0  0
   34.3539    0.5434   25.4179 H   0  0  0  0  0  0  0  0  0  0  0  0
   33.8614    1.6456   26.6811 H   0  0  0  0  0  0  0  0  0  0  0  0
   33.4224   -2.5690   27.2699 H   0  0  0  0  0  0  0  0  0  0  0  0
   33.7432   -1.8962   25.6730 H   0  0  0  0  0  0  0  0  0  0  0  0
   31.3881   -2.6846   25.9876 H   0  0  0  0  0  0  0  0  0  0  0  0
   31.5524   -0.9734   25.5419 H   0  0  0  0  0  0  0  0  0  0  0  0
   30.9362   -2.0991   28.2254 H   0  0  0  0  0  0  0  0  0  0  0  0
   29.2698   -2.6482   25.7489 H   0  0  0  0  0  0  0  0  0  0  0  0
   26.8842   -2.5015   25.3823 H   0  0  0  0  0  0  0  0  0  0  0  0
   26.5858    0.4426   28.3602 H   0  0  0  0  0  0  0  0  0  0  0  0
   28.5287    0.6028   29.9533 H   0  0  0  0  0  0  0  0  0  0  0  0
   29.1507    1.6305   28.6424 H   0  0  0  0  0  0  0  0  0  0  0  0
   30.5777   -0.5546   30.0927 H   0  0  0  0  0  0  0  0  0  0  0  0
   31.0105    1.1371   29.9751 H   0  0  0  0  0  0  0  0  0  0  0  0
   31.3090    0.8555   27.5450 H   0  0  0  0  0  0  0  0  0  0  0  0
   32.7979   -1.0431   29.1632 H   0  0  0  0  0  0  0  0  0  0  0  0
   33.4669    0.7999   30.3246 H   0  0  0  0  0  0  0  0  0  0  0  0
   33.3740    1.8629   28.9880 H   0  0  0  0  0  0  0  0  0  0  0  0
   35.6285    0.1971   29.8394 H   0  0  0  0  0  0  0  0  0  0  0  0
   35.6567    1.4474   28.6513 H   0  0  0  0  0  0  0  0  0  0  0  0
   35.3401   -1.4846   28.2501 H   0  0  0  0  0  0  0  0  0  0  0  0
  1 23  1  0  0  0  0
  1 24  1  0  0  0  0
  1 25  1  0  0  0  0
  2  1  1  6  0  0  0
  2  3  1  0  0  0  0
  3  4  1  0  0  0  0
  3 26  1  0  0  0  0
  3 27  1  0  0  0  0
  4  5  1  0  0  0  0
  4 28  1  0  0  0  0
  4 29  1  0  0  0  0
  5  6  1  0  0  0  0
  5 30  1  1  0  0  0
  6  7  2  0  0  0  0
  7  8  1  0  0  0  0
  7 31  1  0  0  0  0
  8  9  2  0  0  0  0
  8 32  1  0  0  0  0
  9 10  1  0  0  0  0
  9 11  1  0  0  0  0
 10 21  1  0  0  0  0
 11 12  2  0  0  0  0
 11 33  1  0  0  0  0
 12 13  1  0  0  0  0
 12  6  1  0  0  0  0
 13 14  1  0  0  0  0
 13 34  1  0  0  0  0
 13 35  1  0  0  0  0
 14 15  1  0  0  0  0
 14 36  1  0  0  0  0
 14 37  1  0  0  0  0
 15 16  1  0  0  0  0
 15  5  1  0  0  0  0
 15 38  1  6  0  0  0
 16 17  1  0  0  0  0
 16  2  1  0  0  0  0
 16 39  1  1  0  0  0
 17 18  1  0  0  0  0
 17 40  1  0  0  0  0
 17 41  1  0  0  0  0
 18 19  1  0  0  0  0
 18 42  1  0  0  0  0
 18 43  1  0  0  0  0
 19 20  1  0  0  0  0
 19  2  1  0  0  0  0
 19 44  1  1  0  0  0
 20 22  1  0  0  0  0
M  END
>  <minimizedAffinity>
-9.62044

$$$$
CHEMBL135
 OpenBabel01042214213D

 44 47  0  0  0  0  0  0  0  0999 V2000
   27.9941    0.8732   26.7896 C   0  0  0  0  0  0  0  0  0  0  0  0
   28.0127   -0.4149   27.6742 C   0  0  2  0  0  0  0  0  0  0  0  0
   28.5777   -0.0838   29.0722 C   0  0  0  0  0  0  0  0  0  0  0  0
   30.0869    0.2670   29.0072 C   0  0  0  0  0  0  0  0  0  0  0  0
   30.9387   -0.8028   28.2541 C   0  0  2  0  0  0  0  0  0  0  0  0
   32.4152   -0.4343   28.0976 C   0  0  0  0  0  0  0  0  0  0  0  0
   33.0900    0.3102   29.0897 C   0  0  0  0  0  0  0  0  0  0  0  0
   34.4568    0.5726   28.9845 C   0  0  0  0  0  0  0  0  0  0  0  0
   35.1881    0.0772   27.9035 C   0  0  0  0  0  0  0  0  0  0  0  0
   36.5514    0.3396   27.7878 O   0  0  0  0  0  0  0  0  0  0  0  0
   34.5495   -0.6921   26.9312 C   0  0  0  0  0  0  0  0  0  0  0  0
   33.1773   -0.9760   27.0252 C   0  0  0  0  0  0  0  0  0  0  0  0
   32.5486   -1.7857   25.9112 C   0  0  0  0  0  0  0  0  0  0  0  0
   31.1401   -2.2889   26.2380 C   0  0  0  0  0  0  0  0  0  0  0  0
   30.3172   -1.1599   26.8704 C   0  0  1  0  0  0  0  0  0  0  0  0
   28.8471   -1.5637   27.0894 C   0  0  2  0  0  0  0  0  0  0  0  0
   28.0255   -2.0802   25.9136 C   0  0  0  0  0  0  0  0  0  0  0  0
   26.5650   -1.9003   26.3685 C   0  0  0  0  0  0  0  0  0  0  0  0
   26.6160   -1.0726   27.6789 C   0  0  2  0  0  0  0  0  0  0  0  0
   25.5553   -0.1542   27.8128 O   0  0  0  0  0  0  0  0  0  0  0  0
   37.0447    0.8939   28.4779 H   0  0  0  0  0  0  0  0  0  0  0  0
   25.3961    0.2823   26.9369 H   0  0  0  0  0  0  0  0  0  0  0  0
   28.9655    1.3218   26.7923 H   0  0  0  0  0  0  0  0  0  0  0  0
   27.2801    1.5661   27.1834 H   0  0  0  0  0  0  0  0  0  0  0  0
   27.7239    0.6137   25.7873 H   0  0  0  0  0  0  0  0  0  0  0  0
   28.4452   -0.9322   29.7106 H   0  0  0  0  0  0  0  0  0  0  0  0
   28.0518    0.7662   29.4540 H   0  0  0  0  0  0  0  0  0  0  0  0
   30.4584    0.3545   30.0068 H   0  0  0  0  0  0  0  0  0  0  0  0
   30.1756    1.1834   28.4619 H   0  0  0  0  0  0  0  0  0  0  0  0
   30.9130   -1.6673   28.8840 H   0  0  0  0  0  0  0  0  0  0  0  0
   32.5651    0.6654   29.9042 H   0  0  0  0  0  0  0  0  0  0  0  0
   34.9290    1.1355   29.7092 H   0  0  0  0  0  0  0  0  0  0  0  0
   35.0920   -1.0572   26.1328 H   0  0  0  0  0  0  0  0  0  0  0  0
   33.1729   -2.6321   25.7146 H   0  0  0  0  0  0  0  0  0  0  0  0
   32.4614   -1.1382   25.0638 H   0  0  0  0  0  0  0  0  0  0  0  0
   31.2059   -3.1074   26.9240 H   0  0  0  0  0  0  0  0  0  0  0  0
   30.6626   -2.6109   25.3362 H   0  0  0  0  0  0  0  0  0  0  0  0
   30.3379   -0.3258   26.2005 H   0  0  0  0  0  0  0  0  0  0  0  0
   29.0049   -2.3929   27.7470 H   0  0  0  0  0  0  0  0  0  0  0  0
   28.2401   -3.1112   25.7240 H   0  0  0  0  0  0  0  0  0  0  0  0
   28.2392   -1.5602   25.0032 H   0  0  0  0  0  0  0  0  0  0  0  0
   26.1133   -2.8532   26.5496 H   0  0  0  0  0  0  0  0  0  0  0  0
   25.9823   -1.4065   25.6191 H   0  0  0  0  0  0  0  0  0  0  0  0
   26.4798   -1.6940   28.5393 H   0  0  0  0  0  0  0  0  0  0  0  0
  1 23  1  0  0  0  0
  1 24  1  0  0  0  0
  1 25  1  0  0  0  0
  2  1  1  6  0  0  0
  2  3  1  0  0  0  0
  3  4  1  0  0  0  0
  3 26  1  0  0  0  0
  3 27  1  0  0  0  0
  4  5  1  0  0  0  0
  4 28  1  0  0  0  0
  4 29  1  0  0  0  0
  5  6  1  0  0  0  0
  5 30  1  1  0  0  0
  6  7  2  0  0  0  0
  7  8  1  0  0  0  0
  7 31  1  0  0  0  0
  8  9  2  0  0  0  0
  8 32  1  0  0  0  0
  9 10  1  0  0  0  0
  9 11  1  0  0  0  0
 10 21  1  0  0  0  0
 11 12  2  0  0  0  0
 11 33  1  0  0  0  0
 12 13  1  0  0  0  0
 12  6  1  0  0  0  0
 13 14  1  0  0  0  0
 13 34  1  0  0  0  0
 13 35  1  0  0  0  0
 14 15  1  0  0  0  0
 14 36  1  0  0  0  0
 14 37  1  0  0  0  0
 15 16  1  0  0  0  0
 15  5  1  0  0  0  0
 15 38  1  6  0  0  0
 16 17  1  0  0  0  0
 16  2  1  0  0  0  0
 16 39  1  1  0  0  0
 17 18  1  0  0  0  0
 17 40  1  0  0  0  0
 17 41  1  0  0  0  0
 18 19  1  0  0  0  0
 18 42  1  0  0  0  0
 18 43  1  0  0  0  0
 19 20  1  0  0  0  0
 19  2  1  0  0  0  0
 19 44  1  1  0  0  0
 20 22  1  0  0  0  0
M  END
>  <minimizedAffinity>
-9.76377

$$$$
