CMP_0
     RDKit          3D

 35 39  0  0  0  0  0  0  0  0999 V2000
   37.5818   -1.5736   17.3922 C   0  0  0  0  0  0  0  0  0  0  0  0
   38.5166   -0.2934   16.4889 S   0  0  0  0  0  0  0  0  0  0  0  0
   37.0837    0.7070   16.0888 C   0  0  0  0  0  0  0  0  0  0  0  0
   37.0416    1.3651   14.8535 C   0  0  0  0  0  0  0  0  0  0  0  0
   35.9716    2.2147   14.5420 C   0  0  0  0  0  0  0  0  0  0  0  0
   35.9272    2.8830   13.3206 O   0  0  0  0  0  0  0  0  0  0  0  0
   34.9405    2.3986   15.4676 C   0  0  0  0  0  0  0  0  0  0  0  0
   34.9662    1.7224   16.6900 C   0  0  0  0  0  0  0  0  0  0  0  0
   36.0225    0.8580   17.0000 C   0  0  0  0  0  0  0  0  0  0  0  0
   35.9450    0.1085   18.1816 O   0  0  0  0  0  0  0  0  0  0  0  0
   36.8785   -0.8960   18.6016 C   0  0  0  0  0  0  0  0  0  0  0  0
   36.6591    2.7706   12.6288 H   0  0  0  0  0  0  0  0  0  0  0  0
   34.4725   -4.6363   13.6655 O   0  0  0  0  0  0  0  0  0  0  0  0
   35.2216   -3.8950   14.5762 C   0  0  0  0  0  0  0  0  0  0  0  0
   34.6024   -3.3656   15.7102 C   0  0  0  0  0  0  0  0  0  0  0  0
   35.3390   -2.6189   16.6341 C   0  0  0  0  0  0  0  0  0  0  0  0
   36.7170   -2.3875   16.4340 C   0  0  0  0  0  0  0  0  0  0  0  0
   37.3279   -2.9308   15.2887 C   0  0  0  0  0  0  0  0  0  0  0  0
   36.5879   -3.6770   14.3679 C   0  0  0  0  0  0  0  0  0  0  0  0
   34.8949   -5.0405   12.8374 H   0  0  0  0  0  0  0  0  0  0  0  0
   36.1926   -1.8416   19.5824 C   0  0  0  0  0  0  0  0  0  0  0  0
   34.7972   -1.7469   19.7408 C   0  0  0  0  0  0  0  0  0  0  0  0
   34.1184   -2.5706   20.6424 C   0  0  0  0  0  0  0  0  0  0  0  0
   34.8255   -3.5006   21.4229 C   0  0  0  0  0  0  0  0  0  0  0  0
   36.2137   -3.5836   21.2909 C   0  0  0  0  0  0  0  0  0  0  0  0
   36.8958   -2.7599   20.3915 C   0  0  0  0  0  0  0  0  0  0  0  0
   34.1921   -4.3518   22.3392 O   0  0  0  0  0  0  0  0  0  0  0  0
   32.9639   -4.0580   23.0002 C   0  0  0  0  0  0  0  0  0  0  0  0
   33.2336   -3.2926   24.2972 C   0  0  0  0  0  0  0  0  0  0  0  0
   31.9718   -2.8860   24.9497 N   0  0  0  0  0  0  0  0  0  0  0  0
   31.4334   -1.6200   24.4310 C   0  0  0  0  0  0  0  0  0  0  0  0
   30.7162   -0.9219   25.5825 C   0  0  0  0  0  0  0  0  0  0  0  0
   31.0556   -1.7284   26.8250 C   0  0  0  0  0  0  0  0  0  0  0  0
   29.9523   -2.4614   27.2320 F   0  0  0  0  0  0  0  0  0  0  0  0
   32.1633   -2.6662   26.3848 C   0  0  0  0  0  0  0  0  0  0  0  0
 13 14  1  0
 14 15  2  0
 15 16  1  0
 16 17  2  0
 17  1  1  0
  1  2  1  0
  2  3  1  0
  3  4  2  0
  4  5  1  0
  5  6  1  0
  5  7  2  0
  7  8  1  0
  8  9  2  0
  9 10  1  0
 10 11  1  0
 11 21  1  0
 21 22  2  0
 22 23  1  0
 23 24  2  0
 24 27  1  0
 27 28  1  0
 28 29  1  0
 29 30  1  0
 30 31  1  0
 31 32  1  0
 32 33  1  0
 33 34  1  0
 33 35  1  0
 24 25  1  0
 25 26  2  0
 17 18  1  0
 18 19  2  0
 19 14  1  0
 11  1  1  0
 26 21  1  0
  9  3  1  0
 35 30  1  0
 13 20  1  0
  6 12  1  0
M  END
>  <minimizedAffinity>  (1) 
-9.54904

$$$$
CMP_0
     RDKit          3D

 35 39  0  0  0  0  0  0  0  0999 V2000
   38.0584   -0.4158   17.6957 C   0  0  0  0  0  0  0  0  0  0  0  0
   38.7367    1.1506   17.0511 S   0  0  0  0  0  0  0  0  0  0  0  0
   37.2280    1.6576   16.2259 C   0  0  0  0  0  0  0  0  0  0  0  0
   37.3203    2.3412   15.0074 C   0  0  0  0  0  0  0  0  0  0  0  0
   36.1638    2.8175   14.3755 C   0  0  0  0  0  0  0  0  0  0  0  0
   36.2467    3.5094   13.1692 O   0  0  0  0  0  0  0  0  0  0  0  0
   34.9140    2.6016   14.9631 C   0  0  0  0  0  0  0  0  0  0  0  0
   34.8165    1.8962   16.1652 C   0  0  0  0  0  0  0  0  0  0  0  0
   35.9659    1.4018   16.7924 C   0  0  0  0  0  0  0  0  0  0  0  0
   35.8105    0.5963   17.9286 O   0  0  0  0  0  0  0  0  0  0  0  0
   36.8641   -0.0769   18.6311 C   0  0  0  0  0  0  0  0  0  0  0  0
   37.1376    3.6819   12.7182 H   0  0  0  0  0  0  0  0  0  0  0  0
   37.2973   -4.0896   13.3529 O   0  0  0  0  0  0  0  0  0  0  0  0
   37.4756   -3.2017   14.4113 C   0  0  0  0  0  0  0  0  0  0  0  0
   36.4089   -2.9279   15.2697 C   0  0  0  0  0  0  0  0  0  0  0  0
   36.5704   -2.0391   16.3364 C   0  0  0  0  0  0  0  0  0  0  0  0
   37.8113   -1.4047   16.5602 C   0  0  0  0  0  0  0  0  0  0  0  0
   38.8781   -1.6939   15.6892 C   0  0  0  0  0  0  0  0  0  0  0  0
   38.7124   -2.5832   14.6244 C   0  0  0  0  0  0  0  0  0  0  0  0
   38.0543   -4.3152   12.7178 H   0  0  0  0  0  0  0  0  0  0  0  0
   36.2795   -1.2516   19.4090 C   0  0  0  0  0  0  0  0  0  0  0  0
   34.8795   -1.3706   19.4922 C   0  0  0  0  0  0  0  0  0  0  0  0
   34.2880   -2.4124   20.2112 C   0  0  0  0  0  0  0  0  0  0  0  0
   35.0873   -3.3537   20.8816 C   0  0  0  0  0  0  0  0  0  0  0  0
   36.4774   -3.2284   20.8258 C   0  0  0  0  0  0  0  0  0  0  0  0
   37.0721   -2.1866   20.1091 C   0  0  0  0  0  0  0  0  0  0  0  0
   34.5439   -4.4186   21.6137 O   0  0  0  0  0  0  0  0  0  0  0  0
   33.3406   -4.3461   22.3743 C   0  0  0  0  0  0  0  0  0  0  0  0
   33.5823   -3.5695   23.6701 C   0  0  0  0  0  0  0  0  0  0  0  0
   32.3075   -3.1378   24.2798 N   0  0  0  0  0  0  0  0  0  0  0  0
   31.8748   -1.8049   23.8348 C   0  0  0  0  0  0  0  0  0  0  0  0
   31.1283   -1.1550   24.9957 C   0  0  0  0  0  0  0  0  0  0  0  0
   31.3437   -2.0741   26.1867 C   0  0  0  0  0  0  0  0  0  0  0  0
   30.1776   -2.7672   26.4693 F   0  0  0  0  0  0  0  0  0  0  0  0
   32.4217   -3.0413   25.7366 C   0  0  0  0  0  0  0  0  0  0  0  0
 13 14  1  0
 14 15  2  0
 15 16  1  0
 16 17  2  0
 17  1  1  0
  1  2  1  0
  2  3  1  0
  3  4  2  0
  4  5  1  0
  5  6  1  0
  5  7  2  0
  7  8  1  0
  8  9  2  0
  9 10  1  0
 10 11  1  0
 11 21  1  0
 21 22  2  0
 22 23  1  0
 23 24  2  0
 24 27  1  0
 27 28  1  0
 28 29  1  0
 29 30  1  0
 30 31  1  0
 31 32  1  0
 32 33  1  0
 33 34  1  0
 33 35  1  0
 24 25  1  0
 25 26  2  0
 17 18  1  0
 18 19  2  0
 19 14  1  0
 11  1  1  0
 26 21  1  0
  9  3  1  0
 35 30  1  0
 13 20  1  0
  6 12  1  0
M  END
>  <minimizedAffinity>  (2) 
-9.27619

$$$$
CMP_0
     RDKit          3D

 35 39  0  0  0  0  0  0  0  0999 V2000
   33.0539   -2.8455   18.2750 C   0  0  0  0  0  0  0  0  0  0  0  0
   32.8230   -3.3842   16.5471 S   0  0  0  0  0  0  0  0  0  0  0  0
   34.4600   -4.0946   16.3746 C   0  0  0  0  0  0  0  0  0  0  0  0
   35.1174   -3.9879   15.1430 C   0  0  0  0  0  0  0  0  0  0  0  0
   36.3646   -4.5979   14.9529 C   0  0  0  0  0  0  0  0  0  0  0  0
   37.0206   -4.5075   13.7273 O   0  0  0  0  0  0  0  0  0  0  0  0
   36.9552   -5.3091   16.0013 C   0  0  0  0  0  0  0  0  0  0  0  0
   36.3141   -5.3945   17.2398 C   0  0  0  0  0  0  0  0  0  0  0  0
   35.0769   -4.7722   17.4422 C   0  0  0  0  0  0  0  0  0  0  0  0
   34.5305   -4.7799   18.7327 O   0  0  0  0  0  0  0  0  0  0  0  0
   33.3325   -4.1057   19.1413 C   0  0  0  0  0  0  0  0  0  0  0  0
   36.6188   -3.9993   12.9482 H   0  0  0  0  0  0  0  0  0  0  0  0
   36.7801    1.5179   18.3872 O   0  0  0  0  0  0  0  0  0  0  0  0
   35.8758    0.4586   18.3686 C   0  0  0  0  0  0  0  0  0  0  0  0
   35.8252   -0.4248   19.4487 C   0  0  0  0  0  0  0  0  0  0  0  0
   34.9240   -1.4934   19.4461 C   0  0  0  0  0  0  0  0  0  0  0  0
   34.0547   -1.6962   18.3528 C   0  0  0  0  0  0  0  0  0  0  0  0
   34.1144   -0.7952   17.2735 C   0  0  0  0  0  0  0  0  0  0  0  0
   35.0164    0.2718   17.2803 C   0  0  0  0  0  0  0  0  0  0  0  0
   36.8350    2.1807   17.6223 H   0  0  0  0  0  0  0  0  0  0  0  0
   33.3739   -3.8758   20.6487 C   0  0  0  0  0  0  0  0  0  0  0  0
   32.2810   -3.2322   21.2591 C   0  0  0  0  0  0  0  0  0  0  0  0
   32.2743   -2.9735   22.6322 C   0  0  0  0  0  0  0  0  0  0  0  0
   33.3737   -3.3388   23.4272 C   0  0  0  0  0  0  0  0  0  0  0  0
   34.4736   -3.9548   22.8255 C   0  0  0  0  0  0  0  0  0  0  0  0
   34.4843   -4.2132   21.4522 C   0  0  0  0  0  0  0  0  0  0  0  0
   33.4155   -3.1047   24.8088 O   0  0  0  0  0  0  0  0  0  0  0  0
   32.8356   -1.9744   25.4553 C   0  0  0  0  0  0  0  0  0  0  0  0
   33.1329   -2.0156   26.9555 C   0  0  0  0  0  0  0  0  0  0  0  0
   33.5132   -0.6804   27.4614 N   0  0  0  0  0  0  0  0  0  0  0  0
   32.7612    0.4139   26.8300 C   0  0  0  0  0  0  0  0  0  0  0  0
   33.6839    1.6274   26.7689 C   0  0  0  0  0  0  0  0  0  0  0  0
   35.0549    1.1204   27.1844 C   0  0  0  0  0  0  0  0  0  0  0  0
   35.3611    1.5684   28.4595 F   0  0  0  0  0  0  0  0  0  0  0  0
   34.9222   -0.3904   27.1873 C   0  0  0  0  0  0  0  0  0  0  0  0
 13 14  1  0
 14 15  2  0
 15 16  1  0
 16 17  2  0
 17  1  1  0
  1  2  1  0
  2  3  1  0
  3  4  2  0
  4  5  1  0
  5  6  1  0
  5  7  2  0
  7  8  1  0
  8  9  2  0
  9 10  1  0
 10 11  1  0
 11 21  1  0
 21 22  2  0
 22 23  1  0
 23 24  2  0
 24 27  1  0
 27 28  1  0
 28 29  1  0
 29 30  1  0
 30 31  1  0
 31 32  1  0
 32 33  1  0
 33 34  1  0
 33 35  1  0
 24 25  1  0
 25 26  2  0
 17 18  1  0
 18 19  2  0
 19 14  1  0
 11  1  1  0
 26 21  1  0
  9  3  1  0
 35 30  1  0
 13 20  1  0
  6 12  1  0
M  END
>  <minimizedAffinity>  (3) 
-8.71290

$$$$
CMP_0
     RDKit          3D

 35 39  0  0  0  0  0  0  0  0999 V2000
   34.0082   -4.4827   20.2285 C   0  0  0  0  0  0  0  0  0  0  0  0
   35.3083   -5.1785   19.1539 S   0  0  0  0  0  0  0  0  0  0  0  0
   36.0613   -3.5997   18.7610 C   0  0  0  0  0  0  0  0  0  0  0  0
   36.5830   -3.3998   17.4771 C   0  0  0  0  0  0  0  0  0  0  0  0
   37.2452   -2.2058   17.1618 C   0  0  0  0  0  0  0  0  0  0  0  0
   37.7782   -2.0029   15.8908 O   0  0  0  0  0  0  0  0  0  0  0  0
   37.3777   -1.2094   18.1331 C   0  0  0  0  0  0  0  0  0  0  0  0
   36.8345   -1.3949   19.4070 C   0  0  0  0  0  0  0  0  0  0  0  0
   36.1559   -2.5775   19.7230 C   0  0  0  0  0  0  0  0  0  0  0  0
   35.5224   -2.6691   20.9698 O   0  0  0  0  0  0  0  0  0  0  0  0
   34.6998   -3.7559   21.4158 C   0  0  0  0  0  0  0  0  0  0  0  0
   37.6986   -2.7057   15.1652 H   0  0  0  0  0  0  0  0  0  0  0  0
   30.0578   -1.6083   17.2172 O   0  0  0  0  0  0  0  0  0  0  0  0
   31.0224   -2.2999   17.9462 C   0  0  0  0  0  0  0  0  0  0  0  0
   32.3738   -2.1265   17.6411 C   0  0  0  0  0  0  0  0  0  0  0  0
   33.3549   -2.8130   18.3623 C   0  0  0  0  0  0  0  0  0  0  0  0
   32.9946   -3.6919   19.4064 C   0  0  0  0  0  0  0  0  0  0  0  0
   31.6289   -3.8532   19.7049 C   0  0  0  0  0  0  0  0  0  0  0  0
   30.6516   -3.1646   18.9817 C   0  0  0  0  0  0  0  0  0  0  0  0
   29.0695   -1.7066   17.4200 H   0  0  0  0  0  0  0  0  0  0  0  0
   33.7709   -3.2631   22.5208 C   0  0  0  0  0  0  0  0  0  0  0  0
   33.8984   -3.8258   23.8046 C   0  0  0  0  0  0  0  0  0  0  0  0
   33.0590   -3.4307   24.8494 C   0  0  0  0  0  0  0  0  0  0  0  0
   32.0563   -2.4715   24.6285 C   0  0  0  0  0  0  0  0  0  0  0  0
   31.9058   -1.9266   23.3511 C   0  0  0  0  0  0  0  0  0  0  0  0
   32.7424   -2.3210   22.3035 C   0  0  0  0  0  0  0  0  0  0  0  0
   31.1908   -2.0388   25.6428 O   0  0  0  0  0  0  0  0  0  0  0  0
   30.9915   -0.6757   26.0088 C   0  0  0  0  0  0  0  0  0  0  0  0
   31.2752   -0.4837   27.4999 C   0  0  0  0  0  0  0  0  0  0  0  0
   32.5407    0.2488   27.7128 N   0  0  0  0  0  0  0  0  0  0  0  0
   32.9120    1.1056   26.5772 C   0  0  0  0  0  0  0  0  0  0  0  0
   34.4357    1.1414   26.5101 C   0  0  0  0  0  0  0  0  0  0  0  0
   34.9139    0.0997   27.5079 C   0  0  0  0  0  0  0  0  0  0  0  0
   35.4399    0.7215   28.6290 F   0  0  0  0  0  0  0  0  0  0  0  0
   33.6651   -0.6735   27.8857 C   0  0  0  0  0  0  0  0  0  0  0  0
 13 14  1  0
 14 15  2  0
 15 16  1  0
 16 17  2  0
 17  1  1  0
  1  2  1  0
  2  3  1  0
  3  4  2  0
  4  5  1  0
  5  6  1  0
  5  7  2  0
  7  8  1  0
  8  9  2  0
  9 10  1  0
 10 11  1  0
 11 21  1  0
 21 22  2  0
 22 23  1  0
 23 24  2  0
 24 27  1  0
 27 28  1  0
 28 29  1  0
 29 30  1  0
 30 31  1  0
 31 32  1  0
 32 33  1  0
 33 34  1  0
 33 35  1  0
 24 25  1  0
 25 26  2  0
 17 18  1  0
 18 19  2  0
 19 14  1  0
 11  1  1  0
 26 21  1  0
  9  3  1  0
 35 30  1  0
 13 20  1  0
  6 12  1  0
M  END
>  <minimizedAffinity>  (4) 
-8.66961

$$$$
CMP_0
     RDKit          3D

 35 39  0  0  0  0  0  0  0  0999 V2000
   37.5331    0.4986   18.4127 C   0  0  0  0  0  0  0  0  0  0  0  0
   37.9400    2.2770   18.4373 S   0  0  0  0  0  0  0  0  0  0  0  0
   36.8887    2.7069   17.0503 C   0  0  0  0  0  0  0  0  0  0  0  0
   37.3150    3.7007   16.1607 C   0  0  0  0  0  0  0  0  0  0  0  0
   36.4833    4.1129   15.1109 C   0  0  0  0  0  0  0  0  0  0  0  0
   36.8939    5.1094   14.2282 O   0  0  0  0  0  0  0  0  0  0  0  0
   35.2264    3.5230   14.9499 C   0  0  0  0  0  0  0  0  0  0  0  0
   34.8093    2.5122   15.8197 C   0  0  0  0  0  0  0  0  0  0  0  0
   35.6424    2.0828   16.8591 C   0  0  0  0  0  0  0  0  0  0  0  0
   35.2351    0.9848   17.6289 O   0  0  0  0  0  0  0  0  0  0  0  0
   36.0054    0.3486   18.6578 C   0  0  0  0  0  0  0  0  0  0  0  0
   37.7989    5.5562   14.3184 H   0  0  0  0  0  0  0  0  0  0  0  0
   39.9062   -1.9268   13.7844 O   0  0  0  0  0  0  0  0  0  0  0  0
   39.3242   -1.3443   14.9078 C   0  0  0  0  0  0  0  0  0  0  0  0
   37.9698   -1.5571   15.1723 C   0  0  0  0  0  0  0  0  0  0  0  0
   37.3697   -0.9797   16.2950 C   0  0  0  0  0  0  0  0  0  0  0  0
   38.1220   -0.1728   17.1754 C   0  0  0  0  0  0  0  0  0  0  0  0
   39.4867    0.0291   16.8980 C   0  0  0  0  0  0  0  0  0  0  0  0
   40.0827   -0.5502   15.7749 C   0  0  0  0  0  0  0  0  0  0  0  0
   40.8885   -1.7979   13.5700 H   0  0  0  0  0  0  0  0  0  0  0  0
   35.5039   -1.0788   18.8518 C   0  0  0  0  0  0  0  0  0  0  0  0
   36.2694   -1.9570   19.6418 C   0  0  0  0  0  0  0  0  0  0  0  0
   35.8718   -3.2824   19.8347 C   0  0  0  0  0  0  0  0  0  0  0  0
   34.7026   -3.7672   19.2245 C   0  0  0  0  0  0  0  0  0  0  0  0
   33.9505   -2.9099   18.4179 C   0  0  0  0  0  0  0  0  0  0  0  0
   34.3465   -1.5842   18.2214 C   0  0  0  0  0  0  0  0  0  0  0  0
   34.2586   -5.0868   19.3884 O   0  0  0  0  0  0  0  0  0  0  0  0
   33.8966   -5.9569   18.3190 C   0  0  0  0  0  0  0  0  0  0  0  0
   35.1285   -6.2998   17.4789 C   0  0  0  0  0  0  0  0  0  0  0  0
   34.9775   -5.8207   16.0893 N   0  0  0  0  0  0  0  0  0  0  0  0
   35.7820   -4.6250   15.7984 C   0  0  0  0  0  0  0  0  0  0  0  0
   35.0163   -3.7972   14.7708 C   0  0  0  0  0  0  0  0  0  0  0  0
   33.6497   -4.4518   14.6542 C   0  0  0  0  0  0  0  0  0  0  0  0
   33.5499   -5.1330   13.4517 F   0  0  0  0  0  0  0  0  0  0  0  0
   33.5933   -5.4336   15.8088 C   0  0  0  0  0  0  0  0  0  0  0  0
 13 14  1  0
 14 15  2  0
 15 16  1  0
 16 17  2  0
 17  1  1  0
  1  2  1  0
  2  3  1  0
  3  4  2  0
  4  5  1  0
  5  6  1  0
  5  7  2  0
  7  8  1  0
  8  9  2  0
  9 10  1  0
 10 11  1  0
 11 21  1  0
 21 22  2  0
 22 23  1  0
 23 24  2  0
 24 27  1  0
 27 28  1  0
 28 29  1  0
 29 30  1  0
 30 31  1  0
 31 32  1  0
 32 33  1  0
 33 34  1  0
 33 35  1  0
 24 25  1  0
 25 26  2  0
 17 18  1  0
 18 19  2  0
 19 14  1  0
 11  1  1  0
 26 21  1  0
  9  3  1  0
 35 30  1  0
 13 20  1  0
  6 12  1  0
M  END
>  <minimizedAffinity>  (5) 
-8.66263

$$$$
