
     RDKit          2D

 23 25  0  0  0  0  0  0  0  0999 V2000
    5.7630   -8.1875    0.0000 C   0  0  0  0  0  0  0  0  0  0  0  0
    4.2691   -8.3220    0.0000 C   0  0  0  0  0  0  0  0  0  0  0  0
    2.7751   -8.4564    0.0000 C   0  0  0  0  0  0  0  0  0  0  0  0
    4.4035   -9.8159    0.0000 C   0  0  0  0  0  0  0  0  0  0  0  0
    4.1346   -6.8280    0.0000 O   0  0  0  0  0  0  0  0  0  0  0  0
    2.7736   -6.1975    0.0000 C   0  0  0  0  0  0  0  0  0  0  0  0
    1.5470   -7.0609    0.0000 O   0  0  0  0  0  0  0  0  0  0  0  0
    2.6391   -4.7035    0.0000 C   0  0  0  0  0  0  0  0  0  0  0  0
    1.3515   -3.9342    0.0000 C   0  0  0  0  0  0  0  0  0  0  0  0
    1.6852   -2.4718    0.0000 N   0  0  0  0  0  0  0  0  0  0  0  0
    3.1792   -2.3373    0.0000 C   0  0  0  0  0  0  0  0  0  0  0  0
    3.7687   -3.7166    0.0000 N   0  0  0  0  0  0  0  0  0  0  0  0
    0.7500   -1.2990    0.0000 C   0  0  0  0  0  0  0  0  0  0  0  0
    1.5000    0.0000    0.0000 C   0  0  0  0  0  0  0  0  0  0  0  0
    0.7500    1.2990    0.0000 C   0  0  0  0  0  0  0  0  0  0  0  0
   -0.7500    1.2990    0.0000 C   0  0  0  0  0  0  0  0  0  0  0  0
   -1.5000    0.0000    0.0000 C   0  0  0  0  0  0  0  0  0  0  0  0
   -0.7500   -1.2990    0.0000 C   0  0  0  0  0  0  0  0  0  0  0  0
   -1.6852   -2.4718    0.0000 C   0  0  0  0  0  0  0  0  0  0  0  0
   -3.1476   -2.1380    0.0000 O   0  0  0  0  0  0  0  0  0  0  0  0
   -1.3515   -3.9342    0.0000 N   0  0  0  0  0  0  0  0  0  0  0  0
    0.0000   -4.5850    0.0000 C   0  0  0  0  0  0  0  0  0  0  0  0
   -2.5242   -4.8694    0.0000 C   0  0  0  0  0  0  0  0  0  0  0  0
  1  2  1  0
  2  3  1  0
  2  4  1  0
  2  5  1  0
  5  6  1  0
  6  7  2  0
  6  8  1  0
  8  9  2  0
  9 10  1  0
 10 11  1  0
 11 12  2  0
 10 13  1  0
 13 14  2  0
 14 15  1  0
 15 16  2  0
 16 17  1  0
 17 18  2  0
 18 19  1  0
 19 20  2  0
 19 21  1  0
 21 22  1  0
 21 23  1  0
 12  8  1  0
 22  9  1  0
 18 13  1  0
M  END
>  <Name>  (1) 
Mol_0

>  <MolSmiles>  (1) 
CC(C)(C)OC(=O)c1c2n(cn1)-c3ccccc3C(=O)N(C2)C

>  <ActivityClass>  (1) 
0.0

$$$$

     RDKit          2D

 21 23  0  0  0  0  0  0  0  0999 V2000
   -2.5242   -4.8694    0.0000 C   0  0  0  0  0  0  0  0  0  0  0  0
   -1.3515   -3.9342    0.0000 N   0  0  0  0  0  0  0  0  0  0  0  0
   -0.0000   -4.5850    0.0000 C   0  0  0  0  0  0  0  0  0  0  0  0
    1.3515   -3.9342    0.0000 C   0  0  0  0  0  0  0  0  0  0  0  0
    2.6391   -4.7035    0.0000 C   0  0  0  0  0  0  0  0  0  0  0  0
    3.7687   -3.7166    0.0000 N   0  0  0  0  0  0  0  0  0  0  0  0
    3.1792   -2.3373    0.0000 C   0  0  0  0  0  0  0  0  0  0  0  0
    1.6852   -2.4718    0.0000 N   0  0  0  0  0  0  0  0  0  0  0  0
    0.7500   -1.2990    0.0000 C   0  0  0  0  0  0  0  0  0  0  0  0
    1.5000    0.0000    0.0000 C   0  0  0  0  0  0  0  0  0  0  0  0
    0.7500    1.2990    0.0000 C   0  0  0  0  0  0  0  0  0  0  0  0
   -0.7500    1.2990    0.0000 C   0  0  0  0  0  0  0  0  0  0  0  0
   -1.5000    0.0000    0.0000 C   0  0  0  0  0  0  0  0  0  0  0  0
   -0.7500   -1.2990    0.0000 C   0  0  0  0  0  0  0  0  0  0  0  0
   -1.6852   -2.4718    0.0000 C   0  0  0  0  0  0  0  0  0  0  0  0
   -3.1476   -2.1380    0.0000 O   0  0  0  0  0  0  0  0  0  0  0  0
   -1.5000    2.5981    0.0000 Cl  0  0  0  0  0  0  0  0  0  0  0  0
    2.7736   -6.1975    0.0000 C   0  0  0  0  0  0  0  0  0  0  0  0
    1.5470   -7.0609    0.0000 O   0  0  0  0  0  0  0  0  0  0  0  0
    4.1346   -6.8280    0.0000 O   0  0  0  0  0  0  0  0  0  0  0  0
    4.2691   -8.3220    0.0000 C   0  0  0  0  0  0  0  0  0  0  0  0
  1  2  1  0
  2  3  1  0
  3  4  1  0
  4  5  2  0
  5  6  1  0
  6  7  2  0
  7  8  1  0
  8  9  1  0
  9 10  2  0
 10 11  1  0
 11 12  2  0
 12 13  1  0
 13 14  2  0
 14 15  1  0
 15 16  2  0
 12 17  1  0
  5 18  1  0
 18 19  2  0
 18 20  1  0
 20 21  1  0
 15  2  1  0
  8  4  1  0
 14  9  1  0
M  END
>  <Name>  (2) 
Mol_1

>  <MolSmiles>  (2) 
CN1Cc2c(ncn2-c3ccc(cc3C1=O)Cl)C(=O)OC

>  <ActivityClass>  (2) 
0.0

$$$$

     RDKit          2D

 23 25  0  0  0  0  0  0  0  0999 V2000
    5.7646  -10.4465    0.0000 C   0  0  0  0  0  0  0  0  0  0  0  0
    5.6301   -8.9525    0.0000 C   0  0  0  0  0  0  0  0  0  0  0  0
    4.2691   -8.3220    0.0000 C   0  0  0  0  0  0  0  0  0  0  0  0
    4.1346   -6.8280    0.0000 O   0  0  0  0  0  0  0  0  0  0  0  0
    2.7736   -6.1975    0.0000 C   0  0  0  0  0  0  0  0  0  0  0  0
    1.5470   -7.0609    0.0000 O   0  0  0  0  0  0  0  0  0  0  0  0
    2.6391   -4.7035    0.0000 C   0  0  0  0  0  0  0  0  0  0  0  0
    1.3515   -3.9342    0.0000 C   0  0  0  0  0  0  0  0  0  0  0  0
    1.6852   -2.4718    0.0000 N   0  0  0  0  0  0  0  0  0  0  0  0
    3.1792   -2.3373    0.0000 C   0  0  0  0  0  0  0  0  0  0  0  0
    3.7687   -3.7166    0.0000 N   0  0  0  0  0  0  0  0  0  0  0  0
    0.7500   -1.2990    0.0000 C   0  0  0  0  0  0  0  0  0  0  0  0
    1.5000    0.0000    0.0000 C   0  0  0  0  0  0  0  0  0  0  0  0
    0.7500    1.2990    0.0000 C   0  0  0  0  0  0  0  0  0  0  0  0
   -0.7500    1.2990    0.0000 C   0  0  0  0  0  0  0  0  0  0  0  0
   -1.5000    0.0000    0.0000 C   0  0  0  0  0  0  0  0  0  0  0  0
   -0.7500   -1.2990    0.0000 C   0  0  0  0  0  0  0  0  0  0  0  0
   -1.6852   -2.4718    0.0000 C   0  0  0  0  0  0  0  0  0  0  0  0
   -3.1476   -2.1380    0.0000 O   0  0  0  0  0  0  0  0  0  0  0  0
   -1.3515   -3.9342    0.0000 N   0  0  0  0  0  0  0  0  0  0  0  0
    0.0000   -4.5850    0.0000 C   0  0  0  0  0  0  0  0  0  0  0  0
   -2.5242   -4.8694    0.0000 C   0  0  0  0  0  0  0  0  0  0  0  0
   -1.5000    2.5981    0.0000 Cl  0  0  0  0  0  0  0  0  0  0  0  0
  1  2  1  0
  2  3  1  0
  3  4  1  0
  4  5  1  0
  5  6  2  0
  5  7  1  0
  7  8  2  0
  8  9  1  0
  9 10  1  0
 10 11  2  0
  9 12  1  0
 12 13  2  0
 13 14  1  0
 14 15  2  0
 15 16  1  0
 16 17  2  0
 17 18  1  0
 18 19  2  0
 18 20  1  0
 20 21  1  0
 20 22  1  0
 15 23  1  0
 11  7  1  0
 21  8  1  0
 17 12  1  0
M  END
>  <Name>  (3) 
Mol_2

>  <MolSmiles>  (3) 
CCCOC(=O)c1c2n(cn1)-c3ccc(cc3C(=O)N(C2)C)Cl

>  <ActivityClass>  (3) 
0.0

$$$$

     RDKit          2D

 23 25  0  0  0  0  0  0  0  0999 V2000
    5.6301   -8.9525    0.0000 C   0  0  0  0  0  0  0  0  0  0  0  0
    4.2691   -8.3220    0.0000 C   0  0  0  0  0  0  0  0  0  0  0  0
    3.0425   -9.1854    0.0000 C   0  0  0  0  0  0  0  0  0  0  0  0
    4.1346   -6.8280    0.0000 O   0  0  0  0  0  0  0  0  0  0  0  0
    2.7736   -6.1975    0.0000 C   0  0  0  0  0  0  0  0  0  0  0  0
    1.5470   -7.0609    0.0000 O   0  0  0  0  0  0  0  0  0  0  0  0
    2.6391   -4.7035    0.0000 C   0  0  0  0  0  0  0  0  0  0  0  0
    1.3515   -3.9342    0.0000 C   0  0  0  0  0  0  0  0  0  0  0  0
    1.6852   -2.4718    0.0000 N   0  0  0  0  0  0  0  0  0  0  0  0
    3.1792   -2.3373    0.0000 C   0  0  0  0  0  0  0  0  0  0  0  0
    3.7687   -3.7166    0.0000 N   0  0  0  0  0  0  0  0  0  0  0  0
    0.7500   -1.2990    0.0000 C   0  0  0  0  0  0  0  0  0  0  0  0
    1.5000    0.0000    0.0000 C   0  0  0  0  0  0  0  0  0  0  0  0
    0.7500    1.2990    0.0000 C   0  0  0  0  0  0  0  0  0  0  0  0
   -0.7500    1.2990    0.0000 C   0  0  0  0  0  0  0  0  0  0  0  0
   -1.5000    0.0000    0.0000 C   0  0  0  0  0  0  0  0  0  0  0  0
   -0.7500   -1.2990    0.0000 C   0  0  0  0  0  0  0  0  0  0  0  0
   -1.6852   -2.4718    0.0000 C   0  0  0  0  0  0  0  0  0  0  0  0
   -3.1476   -2.1380    0.0000 O   0  0  0  0  0  0  0  0  0  0  0  0
   -1.3515   -3.9342    0.0000 N   0  0  0  0  0  0  0  0  0  0  0  0
    0.0000   -4.5850    0.0000 C   0  0  0  0  0  0  0  0  0  0  0  0
   -2.5242   -4.8694    0.0000 C   0  0  0  0  0  0  0  0  0  0  0  0
   -1.5000    2.5981    0.0000 Cl  0  0  0  0  0  0  0  0  0  0  0  0
  1  2  1  0
  2  3  1  0
  2  4  1  0
  4  5  1  0
  5  6  2  0
  5  7  1  0
  7  8  2  0
  8  9  1  0
  9 10  1  0
 10 11  2  0
  9 12  1  0
 12 13  2  0
 13 14  1  0
 14 15  2  0
 15 16  1  0
 16 17  2  0
 17 18  1  0
 18 19  2  0
 18 20  1  0
 20 21  1  0
 20 22  1  0
 15 23  1  0
 11  7  1  0
 21  8  1  0
 17 12  1  0
M  END
>  <Name>  (4) 
Mol_3

>  <MolSmiles>  (4) 
CC(C)OC(=O)c1c2n(cn1)-c3ccc(cc3C(=O)N(C2)C)Cl

>  <ActivityClass>  (4) 
0.0

$$$$

     RDKit          2D

 24 27  0  0  0  0  0  0  0  0999 V2000
   -2.5242   -4.8694    0.0000 C   0  0  0  0  0  0  0  0  0  0  0  0
   -1.3515   -3.9342    0.0000 N   0  0  0  0  0  0  0  0  0  0  0  0
   -0.0000   -4.5850    0.0000 C   0  0  0  0  0  0  0  0  0  0  0  0
    1.3515   -3.9342    0.0000 C   0  0  0  0  0  0  0  0  0  0  0  0
    2.6391   -4.7035    0.0000 C   0  0  0  0  0  0  0  0  0  0  0  0
    3.7687   -3.7166    0.0000 N   0  0  0  0  0  0  0  0  0  0  0  0
    3.1792   -2.3373    0.0000 C   0  0  0  0  0  0  0  0  0  0  0  0
    1.6852   -2.4718    0.0000 N   0  0  0  0  0  0  0  0  0  0  0  0
    0.7500   -1.2990    0.0000 C   0  0  0  0  0  0  0  0  0  0  0  0
    1.5000    0.0000    0.0000 C   0  0  0  0  0  0  0  0  0  0  0  0
    0.7500    1.2990    0.0000 C   0  0  0  0  0  0  0  0  0  0  0  0
   -0.7500    1.2990    0.0000 C   0  0  0  0  0  0  0  0  0  0  0  0
   -1.5000    0.0000    0.0000 C   0  0  0  0  0  0  0  0  0  0  0  0
   -0.7500   -1.2990    0.0000 C   0  0  0  0  0  0  0  0  0  0  0  0
   -1.6852   -2.4718    0.0000 C   0  0  0  0  0  0  0  0  0  0  0  0
   -3.1476   -2.1380    0.0000 O   0  0  0  0  0  0  0  0  0  0  0  0
   -1.5000    2.5981    0.0000 Cl  0  0  0  0  0  0  0  0  0  0  0  0
    2.7736   -6.1975    0.0000 C   0  0  0  0  0  0  0  0  0  0  0  0
    1.5470   -7.0609    0.0000 O   0  0  0  0  0  0  0  0  0  0  0  0
    4.1346   -6.8280    0.0000 O   0  0  0  0  0  0  0  0  0  0  0  0
    4.2691   -8.3220    0.0000 C   0  0  0  0  0  0  0  0  0  0  0  0
    5.6301   -8.9525    0.0000 C   0  0  0  0  0  0  0  0  0  0  0  0
    7.1241   -8.8181    0.0000 C   0  0  0  0  0  0  0  0  0  0  0  0
    6.4935  -10.1791    0.0000 C   0  0  0  0  0  0  0  0  0  0  0  0
  1  2  1  0
  2  3  1  0
  3  4  1  0
  4  5  2  0
  5  6  1  0
  6  7  2  0
  7  8  1  0
  8  9  1  0
  9 10  2  0
 10 11  1  0
 11 12  2  0
 12 13  1  0
 13 14  2  0
 14 15  1  0
 15 16  2  0
 12 17  1  0
  5 18  1  0
 18 19  2  0
 18 20  1  0
 20 21  1  0
 21 22  1  0
 22 23  1  0
 23 24  1  0
 15  2  1  0
  8  4  1  0
 14  9  1  0
 24 22  1  0
M  END
>  <Name>  (5) 
Mol_4

>  <MolSmiles>  (5) 
CN1Cc2c(ncn2-c3ccc(cc3C1=O)Cl)C(=O)OCC4CC4

>  <ActivityClass>  (5) 
0.0

$$$$

     RDKit          2D

 24 26  0  0  0  0  0  0  0  0999 V2000
    5.7630   -8.1875    0.0000 C   0  0  0  0  0  0  0  0  0  0  0  0
    4.2691   -8.3220    0.0000 C   0  0  0  0  0  0  0  0  0  0  0  0
    2.7751   -8.4564    0.0000 C   0  0  0  0  0  0  0  0  0  0  0  0
    4.4035   -9.8159    0.0000 C   0  0  0  0  0  0  0  0  0  0  0  0
    4.1346   -6.8280    0.0000 O   0  0  0  0  0  0  0  0  0  0  0  0
    2.7736   -6.1975    0.0000 C   0  0  0  0  0  0  0  0  0  0  0  0
    1.5470   -7.0609    0.0000 O   0  0  0  0  0  0  0  0  0  0  0  0
    2.6391   -4.7035    0.0000 C   0  0  0  0  0  0  0  0  0  0  0  0
    1.3515   -3.9342    0.0000 C   0  0  0  0  0  0  0  0  0  0  0  0
    1.6852   -2.4718    0.0000 N   0  0  0  0  0  0  0  0  0  0  0  0
    3.1792   -2.3373    0.0000 C   0  0  0  0  0  0  0  0  0  0  0  0
    3.7687   -3.7166    0.0000 N   0  0  0  0  0  0  0  0  0  0  0  0
    0.7500   -1.2990    0.0000 C   0  0  0  0  0  0  0  0  0  0  0  0
    1.5000    0.0000    0.0000 C   0  0  0  0  0  0  0  0  0  0  0  0
    0.7500    1.2990    0.0000 C   0  0  0  0  0  0  0  0  0  0  0  0
   -0.7500    1.2990    0.0000 C   0  0  0  0  0  0  0  0  0  0  0  0
   -1.5000    0.0000    0.0000 C   0  0  0  0  0  0  0  0  0  0  0  0
   -0.7500   -1.2990    0.0000 C   0  0  0  0  0  0  0  0  0  0  0  0
   -1.6852   -2.4718    0.0000 C   0  0  0  0  0  0  0  0  0  0  0  0
   -3.1476   -2.1380    0.0000 O   0  0  0  0  0  0  0  0  0  0  0  0
   -1.3515   -3.9342    0.0000 N   0  0  0  0  0  0  0  0  0  0  0  0
    0.0000   -4.5850    0.0000 C   0  0  0  0  0  0  0  0  0  0  0  0
   -2.5242   -4.8694    0.0000 C   0  0  0  0  0  0  0  0  0  0  0  0
   -1.5000    2.5981    0.0000 Cl  0  0  0  0  0  0  0  0  0  0  0  0
  1  2  1  0
  2  3  1  0
  2  4  1  0
  2  5  1  0
  5  6  1  0
  6  7  2  0
  6  8  1  0
  8  9  2  0
  9 10  1  0
 10 11  1  0
 11 12  2  0
 10 13  1  0
 13 14  2  0
 14 15  1  0
 15 16  2  0
 16 17  1  0
 17 18  2  0
 18 19  1  0
 19 20  2  0
 19 21  1  0
 21 22  1  0
 21 23  1  0
 16 24  1  0
 12  8  1  0
 22  9  1  0
 18 13  1  0
M  END
>  <Name>  (6) 
Mol_5

>  <MolSmiles>  (6) 
CC(C)(C)OC(=O)c1c2n(cn1)-c3ccc(cc3C(=O)N(C2)C)Cl

>  <ActivityClass>  (6) 
0.0

$$$$

     RDKit          2D

 25 27  0  0  0  0  0  0  0  0999 V2000
    5.7646  -10.4465    0.0000 C   0  0  0  0  0  0  0  0  0  0  0  0
    5.6301   -8.9525    0.0000 C   0  0  0  0  0  0  0  0  0  0  0  0
    4.2691   -8.3220    0.0000 C   0  0  0  0  0  0  0  0  0  0  0  0
    3.0425   -9.1854    0.0000 C   0  0  0  0  0  0  0  0  0  0  0  0
    3.1770  -10.6794    0.0000 C   0  0  0  0  0  0  0  0  0  0  0  0
    4.1346   -6.8280    0.0000 O   0  0  0  0  0  0  0  0  0  0  0  0
    2.7736   -6.1975    0.0000 C   0  0  0  0  0  0  0  0  0  0  0  0
    1.5470   -7.0609    0.0000 O   0  0  0  0  0  0  0  0  0  0  0  0
    2.6391   -4.7035    0.0000 C   0  0  0  0  0  0  0  0  0  0  0  0
    1.3515   -3.9342    0.0000 C   0  0  0  0  0  0  0  0  0  0  0  0
    1.6852   -2.4718    0.0000 N   0  0  0  0  0  0  0  0  0  0  0  0
    3.1792   -2.3373    0.0000 C   0  0  0  0  0  0  0  0  0  0  0  0
    3.7687   -3.7166    0.0000 N   0  0  0  0  0  0  0  0  0  0  0  0
    0.7500   -1.2990    0.0000 C   0  0  0  0  0  0  0  0  0  0  0  0
    1.5000    0.0000    0.0000 C   0  0  0  0  0  0  0  0  0  0  0  0
    0.7500    1.2990    0.0000 C   0  0  0  0  0  0  0  0  0  0  0  0
   -0.7500    1.2990    0.0000 C   0  0  0  0  0  0  0  0  0  0  0  0
   -1.5000    0.0000    0.0000 C   0  0  0  0  0  0  0  0  0  0  0  0
   -0.7500   -1.2990    0.0000 C   0  0  0  0  0  0  0  0  0  0  0  0
   -1.6852   -2.4718    0.0000 C   0  0  0  0  0  0  0  0  0  0  0  0
   -3.1476   -2.1380    0.0000 O   0  0  0  0  0  0  0  0  0  0  0  0
   -1.3515   -3.9342    0.0000 N   0  0  0  0  0  0  0  0  0  0  0  0
    0.0000   -4.5850    0.0000 C   0  0  0  0  0  0  0  0  0  0  0  0
   -2.5242   -4.8694    0.0000 C   0  0  0  0  0  0  0  0  0  0  0  0
   -1.5000    2.5981    0.0000 Cl  0  0  0  0  0  0  0  0  0  0  0  0
  1  2  1  0
  2  3  1  0
  3  4  1  0
  4  5  1  0
  3  6  1  0
  6  7  1  0
  7  8  2  0
  7  9  1  0
  9 10  2  0
 10 11  1  0
 11 12  1  0
 12 13  2  0
 11 14  1  0
 14 15  2  0
 15 16  1  0
 16 17  2  0
 17 18  1  0
 18 19  2  0
 19 20  1  0
 20 21  2  0
 20 22  1  0
 22 23  1  0
 22 24  1  0
 17 25  1  0
 13  9  1  0
 23 10  1  0
 19 14  1  0
M  END
>  <Name>  (7) 
Mol_6

>  <MolSmiles>  (7) 
CCC(CC)OC(=O)c1c2n(cn1)-c3ccc(cc3C(=O)N(C2)C)Cl

>  <ActivityClass>  (7) 
0.0

$$$$

     RDKit          2D

 25 27  0  0  0  0  0  0  0  0999 V2000
    4.9996  -10.3136    0.0000 C   0  0  0  0  0  0  0  0  0  0  0  0
    5.6301   -8.9525    0.0000 C   0  0  0  0  0  0  0  0  0  0  0  0
    6.2607   -7.5915    0.0000 C   0  0  0  0  0  0  0  0  0  0  0  0
    6.9912   -9.5831    0.0000 C   0  0  0  0  0  0  0  0  0  0  0  0
    4.2691   -8.3220    0.0000 C   0  0  0  0  0  0  0  0  0  0  0  0
    4.1346   -6.8280    0.0000 O   0  0  0  0  0  0  0  0  0  0  0  0
    2.7736   -6.1975    0.0000 C   0  0  0  0  0  0  0  0  0  0  0  0
    1.5470   -7.0609    0.0000 O   0  0  0  0  0  0  0  0  0  0  0  0
    2.6391   -4.7035    0.0000 C   0  0  0  0  0  0  0  0  0  0  0  0
    1.3515   -3.9342    0.0000 C   0  0  0  0  0  0  0  0  0  0  0  0
    1.6852   -2.4718    0.0000 N   0  0  0  0  0  0  0  0  0  0  0  0
    3.1792   -2.3373    0.0000 C   0  0  0  0  0  0  0  0  0  0  0  0
    3.7687   -3.7166    0.0000 N   0  0  0  0  0  0  0  0  0  0  0  0
    0.7500   -1.2990    0.0000 C   0  0  0  0  0  0  0  0  0  0  0  0
    1.5000    0.0000    0.0000 C   0  0  0  0  0  0  0  0  0  0  0  0
    0.7500    1.2990    0.0000 C   0  0  0  0  0  0  0  0  0  0  0  0
   -0.7500    1.2990    0.0000 C   0  0  0  0  0  0  0  0  0  0  0  0
   -1.5000    0.0000    0.0000 C   0  0  0  0  0  0  0  0  0  0  0  0
   -0.7500   -1.2990    0.0000 C   0  0  0  0  0  0  0  0  0  0  0  0
   -1.6852   -2.4718    0.0000 C   0  0  0  0  0  0  0  0  0  0  0  0
   -3.1476   -2.1380    0.0000 O   0  0  0  0  0  0  0  0  0  0  0  0
   -1.3515   -3.9342    0.0000 N   0  0  0  0  0  0  0  0  0  0  0  0
    0.0000   -4.5850    0.0000 C   0  0  0  0  0  0  0  0  0  0  0  0
   -2.5242   -4.8694    0.0000 C   0  0  0  0  0  0  0  0  0  0  0  0
   -1.5000    2.5981    0.0000 Cl  0  0  0  0  0  0  0  0  0  0  0  0
  1  2  1  0
  2  3  1  0
  2  4  1  0
  2  5  1  0
  5  6  1  0
  6  7  1  0
  7  8  2  0
  7  9  1  0
  9 10  2  0
 10 11  1  0
 11 12  1  0
 12 13  2  0
 11 14  1  0
 14 15  2  0
 15 16  1  0
 16 17  2  0
 17 18  1  0
 18 19  2  0
 19 20  1  0
 20 21  2  0
 20 22  1  0
 22 23  1  0
 22 24  1  0
 17 25  1  0
 13  9  1  0
 23 10  1  0
 19 14  1  0
M  END
>  <Name>  (8) 
Mol_7

>  <MolSmiles>  (8) 
CC(C)(C)COC(=O)c1c2n(cn1)-c3ccc(cc3C(=O)N(C2)C)Cl

>  <ActivityClass>  (8) 
0.0

$$$$

     RDKit          2D

 23 25  0  0  0  0  0  0  0  0999 V2000
    5.6301   -8.9525    0.0000 C   0  0  0  0  0  0  0  0  0  0  0  0
    4.2691   -8.3220    0.0000 C   0  0  0  0  0  0  0  0  0  0  0  0
    4.1346   -6.8280    0.0000 O   0  0  0  0  0  0  0  0  0  0  0  0
    2.7736   -6.1975    0.0000 C   0  0  0  0  0  0  0  0  0  0  0  0
    1.5470   -7.0609    0.0000 O   0  0  0  0  0  0  0  0  0  0  0  0
    2.6391   -4.7035    0.0000 C   0  0  0  0  0  0  0  0  0  0  0  0
    1.3515   -3.9342    0.0000 C   0  0  0  0  0  0  0  0  0  0  0  0
    1.6852   -2.4718    0.0000 N   0  0  0  0  0  0  0  0  0  0  0  0
    3.1792   -2.3373    0.0000 C   0  0  0  0  0  0  0  0  0  0  0  0
    3.7687   -3.7166    0.0000 N   0  0  0  0  0  0  0  0  0  0  0  0
    0.7500   -1.2990    0.0000 C   0  0  0  0  0  0  0  0  0  0  0  0
    1.5000    0.0000    0.0000 C   0  0  0  0  0  0  0  0  0  0  0  0
    0.7500    1.2990    0.0000 C   0  0  0  0  0  0  0  0  0  0  0  0
   -0.7500    1.2990    0.0000 C   0  0  0  0  0  0  0  0  0  0  0  0
   -1.5000    0.0000    0.0000 C   0  0  0  0  0  0  0  0  0  0  0  0
   -0.7500   -1.2990    0.0000 C   0  0  0  0  0  0  0  0  0  0  0  0
   -1.6852   -2.4718    0.0000 C   0  0  0  0  0  0  0  0  0  0  0  0
   -3.1476   -2.1380    0.0000 O   0  0  0  0  0  0  0  0  0  0  0  0
   -1.3515   -3.9342    0.0000 N   0  0  0  0  0  0  0  0  0  0  0  0
    0.0000   -4.5850    0.0000 C   0  0  0  0  0  0  0  0  0  0  0  0
   -2.5242   -4.8694    0.0000 C   0  0  0  0  0  0  0  0  0  0  0  0
   -2.3006   -6.3527    0.0000 C   0  0  0  0  0  0  0  0  0  0  0  0
   -3.4734   -7.2879    0.0000 C   0  0  0  0  0  0  0  0  0  0  0  0
  1  2  1  0
  2  3  1  0
  3  4  1  0
  4  5  2  0
  4  6  1  0
  6  7  2  0
  7  8  1  0
  8  9  1  0
  9 10  2  0
  8 11  1  0
 11 12  2  0
 12 13  1  0
 13 14  2  0
 14 15  1  0
 15 16  2  0
 16 17  1  0
 17 18  2  0
 17 19  1  0
 19 20  1  0
 19 21  1  0
 21 22  1  0
 22 23  2  0
 10  6  1  0
 20  7  1  0
 16 11  1  0
M  END
>  <Name>  (9) 
Mol_8

>  <MolSmiles>  (9) 
CCOC(=O)c1c2n(cn1)-c3ccccc3C(=O)N(C2)CC=C

>  <ActivityClass>  (9) 
1.0

$$$$

     RDKit          2D

 28 31  0  0  0  0  0  0  0  0999 V2000
    5.6301   -8.9525    0.0000 C   0  0  0  0  0  0  0  0  0  0  0  0
    4.2691   -8.3220    0.0000 C   0  0  0  0  0  0  0  0  0  0  0  0
    4.1346   -6.8280    0.0000 O   0  0  0  0  0  0  0  0  0  0  0  0
    2.7736   -6.1975    0.0000 C   0  0  0  0  0  0  0  0  0  0  0  0
    1.5470   -7.0609    0.0000 O   0  0  0  0  0  0  0  0  0  0  0  0
    2.6391   -4.7035    0.0000 C   0  0  0  0  0  0  0  0  0  0  0  0
    1.3515   -3.9342    0.0000 C   0  0  0  0  0  0  0  0  0  0  0  0
    1.6852   -2.4718    0.0000 N   0  0  0  0  0  0  0  0  0  0  0  0
    3.1792   -2.3373    0.0000 C   0  0  0  0  0  0  0  0  0  0  0  0
    3.7687   -3.7166    0.0000 N   0  0  0  0  0  0  0  0  0  0  0  0
    0.7500   -1.2990    0.0000 C   0  0  0  0  0  0  0  0  0  0  0  0
    1.5000    0.0000    0.0000 C   0  0  0  0  0  0  0  0  0  0  0  0
    0.7500    1.2990    0.0000 C   0  0  0  0  0  0  0  0  0  0  0  0
   -0.7500    1.2990    0.0000 C   0  0  0  0  0  0  0  0  0  0  0  0
   -1.5000    0.0000    0.0000 C   0  0  0  0  0  0  0  0  0  0  0  0
   -0.7500   -1.2990    0.0000 C   0  0  0  0  0  0  0  0  0  0  0  0
   -1.6852   -2.4718    0.0000 C   0  0  0  0  0  0  0  0  0  0  0  0
   -3.1476   -2.1380    0.0000 O   0  0  0  0  0  0  0  0  0  0  0  0
   -1.3515   -3.9342    0.0000 N   0  0  0  0  0  0  0  0  0  0  0  0
    0.0000   -4.5850    0.0000 C   0  0  0  0  0  0  0  0  0  0  0  0
   -2.5242   -4.8694    0.0000 C   0  0  0  0  0  0  0  0  0  0  0  0
   -2.3006   -6.3527    0.0000 C   0  0  0  0  0  0  0  0  0  0  0  0
   -3.4734   -7.2879    0.0000 C   0  0  0  0  0  0  0  0  0  0  0  0
   -3.2498   -8.7711    0.0000 C   0  0  0  0  0  0  0  0  0  0  0  0
   -1.8535   -9.3192    0.0000 C   0  0  0  0  0  0  0  0  0  0  0  0
   -0.6808   -8.3839    0.0000 C   0  0  0  0  0  0  0  0  0  0  0  0
   -0.9043   -6.9007    0.0000 C   0  0  0  0  0  0  0  0  0  0  0  0
   -1.5000    2.5981    0.0000 Cl  0  0  0  0  0  0  0  0  0  0  0  0
  1  2  1  0
  2  3  1  0
  3  4  1  0
  4  5  2  0
  4  6  1  0
  6  7  2  0
  7  8  1  0
  8  9  1  0
  9 10  2  0
  8 11  1  0
 11 12  2  0
 12 13  1  0
 13 14  2  0
 14 15  1  0
 15 16  2  0
 16 17  1  0
 17 18  2  0
 17 19  1  0
 19 20  1  0
 19 21  1  0
 21 22  1  0
 22 23  2  0
 23 24  1  0
 24 25  2  0
 25 26  1  0
 26 27  2  0
 14 28  1  0
 10  6  1  0
 20  7  1  0
 16 11  1  0
 27 22  1  0
M  END
>  <Name>  (10) 
Mol_9

>  <MolSmiles>  (10) 
CCOC(=O)c1c2n(cn1)-c3ccc(cc3C(=O)N(C2)Cc4ccccc4)Cl

>  <ActivityClass>  (10) 
0.0

$$$$

     RDKit          2D

 28 31  0  0  0  0  0  0  0  0999 V2000
    5.6301   -8.9525    0.0000 C   0  0  0  0  0  0  0  0  0  0  0  0
    4.2691   -8.3220    0.0000 C   0  0  0  0  0  0  0  0  0  0  0  0
    4.1346   -6.8280    0.0000 O   0  0  0  0  0  0  0  0  0  0  0  0
    2.7736   -6.1975    0.0000 C   0  0  0  0  0  0  0  0  0  0  0  0
    1.5470   -7.0609    0.0000 O   0  0  0  0  0  0  0  0  0  0  0  0
    2.6391   -4.7035    0.0000 C   0  0  0  0  0  0  0  0  0  0  0  0
    1.3515   -3.9342    0.0000 C   0  0  0  0  0  0  0  0  0  0  0  0
    1.6852   -2.4718    0.0000 N   0  0  0  0  0  0  0  0  0  0  0  0
    3.1792   -2.3373    0.0000 C   0  0  0  0  0  0  0  0  0  0  0  0
    3.7687   -3.7166    0.0000 N   0  0  0  0  0  0  0  0  0  0  0  0
    0.7500   -1.2990    0.0000 C   0  0  0  0  0  0  0  0  0  0  0  0
    1.5000    0.0000    0.0000 C   0  0  0  0  0  0  0  0  0  0  0  0
    0.7500    1.2990    0.0000 C   0  0  0  0  0  0  0  0  0  0  0  0
   -0.7500    1.2990    0.0000 C   0  0  0  0  0  0  0  0  0  0  0  0
   -1.5000    0.0000    0.0000 C   0  0  0  0  0  0  0  0  0  0  0  0
   -0.7500   -1.2990    0.0000 C   0  0  0  0  0  0  0  0  0  0  0  0
   -1.6852   -2.4718    0.0000 C   0  0  0  0  0  0  0  0  0  0  0  0
   -3.1476   -2.1380    0.0000 O   0  0  0  0  0  0  0  0  0  0  0  0
   -1.3515   -3.9342    0.0000 N   0  0  0  0  0  0  0  0  0  0  0  0
    0.0000   -4.5850    0.0000 C   0  0  0  0  0  0  0  0  0  0  0  0
   -2.5242   -4.8694    0.0000 C   0  0  0  0  0  0  0  0  0  0  0  0
   -2.3006   -6.3527    0.0000 C   0  0  0  0  0  0  0  0  0  0  0  0
   -3.4734   -7.2879    0.0000 C   0  0  0  0  0  0  0  0  0  0  0  0
   -3.2498   -8.7711    0.0000 C   0  0  0  0  0  0  0  0  0  0  0  0
   -1.8535   -9.3192    0.0000 C   0  0  0  0  0  0  0  0  0  0  0  0
   -0.6808   -8.3839    0.0000 C   0  0  0  0  0  0  0  0  0  0  0  0
   -0.9043   -6.9007    0.0000 C   0  0  0  0  0  0  0  0  0  0  0  0
   -3.0000    0.0000    0.0000 Cl  0  0  0  0  0  0  0  0  0  0  0  0
  1  2  1  0
  2  3  1  0
  3  4  1  0
  4  5  2  0
  4  6  1  0
  6  7  2  0
  7  8  1  0
  8  9  1  0
  9 10  2  0
  8 11  1  0
 11 12  2  0
 12 13  1  0
 13 14  2  0
 14 15  1  0
 15 16  2  0
 16 17  1  0
 17 18  2  0
 17 19  1  0
 19 20  1  0
 19 21  1  0
 21 22  1  0
 22 23  2  0
 23 24  1  0
 24 25  2  0
 25 26  1  0
 26 27  2  0
 15 28  1  0
 10  6  1  0
 20  7  1  0
 16 11  1  0
 27 22  1  0
M  END
>  <Name>  (11) 
Mol_10

>  <MolSmiles>  (11) 
CCOC(=O)c1c2n(cn1)-c3cccc(c3C(=O)N(C2)Cc4ccccc4)Cl

>  <ActivityClass>  (11) 
1.0

$$$$

     RDKit          2D

 29 33  0  0  0  0  0  0  0  0999 V2000
    4.7144   -9.5588    0.0000 C   0  0  0  0  0  0  0  0  0  0  0  0
    3.7275   -8.4292    0.0000 C   0  0  0  0  0  0  0  0  0  0  0  0
    4.0613   -6.9668    0.0000 N   0  0  0  0  0  0  0  0  0  0  0  0
    2.7736   -6.1975    0.0000 C   0  0  0  0  0  0  0  0  0  0  0  0
    1.6440   -7.1844    0.0000 O   0  0  0  0  0  0  0  0  0  0  0  0
    2.2335   -8.5637    0.0000 N   0  0  0  0  0  0  0  0  0  0  0  0
    2.6391   -4.7035    0.0000 C   0  0  0  0  0  0  0  0  0  0  0  0
    1.3515   -3.9342    0.0000 C   0  0  0  0  0  0  0  0  0  0  0  0
    1.6852   -2.4718    0.0000 N   0  0  0  0  0  0  0  0  0  0  0  0
    3.1792   -2.3373    0.0000 C   0  0  0  0  0  0  0  0  0  0  0  0
    3.7687   -3.7166    0.0000 N   0  0  0  0  0  0  0  0  0  0  0  0
    0.7500   -1.2990    0.0000 C   0  0  0  0  0  0  0  0  0  0  0  0
    1.5000    0.0000    0.0000 C   0  0  0  0  0  0  0  0  0  0  0  0
    0.7500    1.2990    0.0000 C   0  0  0  0  0  0  0  0  0  0  0  0
   -0.7500    1.2990    0.0000 C   0  0  0  0  0  0  0  0  0  0  0  0
   -1.5000    0.0000    0.0000 C   0  0  0  0  0  0  0  0  0  0  0  0
   -0.7500   -1.2990    0.0000 C   0  0  0  0  0  0  0  0  0  0  0  0
   -1.6852   -2.4718    0.0000 C   0  0  0  0  0  0  0  0  0  0  0  0
   -3.1476   -2.1380    0.0000 O   0  0  0  0  0  0  0  0  0  0  0  0
   -1.3515   -3.9342    0.0000 N   0  0  0  0  0  0  0  0  0  0  0  0
    0.0000   -4.5850    0.0000 C   0  0  0  0  0  0  0  0  0  0  0  0
   -2.5242   -4.8694    0.0000 C   0  0  0  0  0  0  0  0  0  0  0  0
   -2.3006   -6.3527    0.0000 C   0  0  0  0  0  0  0  0  0  0  0  0
   -3.4734   -7.2879    0.0000 C   0  0  0  0  0  0  0  0  0  0  0  0
   -3.2498   -8.7711    0.0000 C   0  0  0  0  0  0  0  0  0  0  0  0
   -1.8535   -9.3192    0.0000 C   0  0  0  0  0  0  0  0  0  0  0  0
   -0.6808   -8.3839    0.0000 C   0  0  0  0  0  0  0  0  0  0  0  0
   -0.9043   -6.9007    0.0000 C   0  0  0  0  0  0  0  0  0  0  0  0
   -3.0000    0.0000    0.0000 Cl  0  0  0  0  0  0  0  0  0  0  0  0
  1  2  1  0
  2  3  1  0
  3  4  2  0
  4  5  1  0
  5  6  1  0
  4  7  1  0
  7  8  2  0
  8  9  1  0
  9 10  1  0
 10 11  2  0
  9 12  1  0
 12 13  2  0
 13 14  1  0
 14 15  2  0
 15 16  1  0
 16 17  2  0
 17 18  1  0
 18 19  2  0
 18 20  1  0
 20 21  1  0
 20 22  1  0
 22 23  1  0
 23 24  2  0
 24 25  1  0
 25 26  2  0
 26 27  1  0
 27 28  2  0
 16 29  1  0
  6  2  2  0
 11  7  1  0
 21  8  1  0
 17 12  1  0
 28 23  1  0
M  END
>  <Name>  (12) 
Mol_11

>  <MolSmiles>  (12) 
Cc1nc(on1)c2c3n(cn2)-c4cccc(c4C(=O)N(C3)Cc5ccccc5)Cl

>  <ActivityClass>  (12) 
1.0

$$$$

     RDKit          2D

 29 33  0  0  0  0  0  0  0  0999 V2000
    4.7144   -9.5588    0.0000 C   0  0  0  0  0  0  0  0  0  0  0  0
    3.7275   -8.4292    0.0000 C   0  0  0  0  0  0  0  0  0  0  0  0
    4.0613   -6.9668    0.0000 N   0  0  0  0  0  0  0  0  0  0  0  0
    2.7736   -6.1975    0.0000 C   0  0  0  0  0  0  0  0  0  0  0  0
    1.6440   -7.1844    0.0000 O   0  0  0  0  0  0  0  0  0  0  0  0
    2.2335   -8.5637    0.0000 N   0  0  0  0  0  0  0  0  0  0  0  0
    2.6391   -4.7035    0.0000 C   0  0  0  0  0  0  0  0  0  0  0  0
    1.3515   -3.9342    0.0000 C   0  0  0  0  0  0  0  0  0  0  0  0
    1.6852   -2.4718    0.0000 N   0  0  0  0  0  0  0  0  0  0  0  0
    3.1792   -2.3373    0.0000 C   0  0  0  0  0  0  0  0  0  0  0  0
    3.7687   -3.7166    0.0000 N   0  0  0  0  0  0  0  0  0  0  0  0
    0.7500   -1.2990    0.0000 C   0  0  0  0  0  0  0  0  0  0  0  0
    1.5000    0.0000    0.0000 C   0  0  0  0  0  0  0  0  0  0  0  0
    0.7500    1.2990    0.0000 C   0  0  0  0  0  0  0  0  0  0  0  0
   -0.7500    1.2990    0.0000 C   0  0  0  0  0  0  0  0  0  0  0  0
   -1.5000    0.0000    0.0000 C   0  0  0  0  0  0  0  0  0  0  0  0
   -0.7500   -1.2990    0.0000 C   0  0  0  0  0  0  0  0  0  0  0  0
   -1.6852   -2.4718    0.0000 C   0  0  0  0  0  0  0  0  0  0  0  0
   -3.1476   -2.1380    0.0000 O   0  0  0  0  0  0  0  0  0  0  0  0
   -1.3515   -3.9342    0.0000 N   0  0  0  0  0  0  0  0  0  0  0  0
    0.0000   -4.5850    0.0000 C   0  0  0  0  0  0  0  0  0  0  0  0
   -2.5242   -4.8694    0.0000 C   0  0  0  0  0  0  0  0  0  0  0  0
   -2.3006   -6.3527    0.0000 C   0  0  0  0  0  0  0  0  0  0  0  0
   -3.4734   -7.2879    0.0000 C   0  0  0  0  0  0  0  0  0  0  0  0
   -3.2498   -8.7711    0.0000 C   0  0  0  0  0  0  0  0  0  0  0  0
   -1.8535   -9.3192    0.0000 C   0  0  0  0  0  0  0  0  0  0  0  0
   -0.6808   -8.3839    0.0000 C   0  0  0  0  0  0  0  0  0  0  0  0
   -0.9043   -6.9007    0.0000 C   0  0  0  0  0  0  0  0  0  0  0  0
   -1.5000    2.5981    0.0000 Cl  0  0  0  0  0  0  0  0  0  0  0  0
  1  2  1  0
  2  3  1  0
  3  4  2  0
  4  5  1  0
  5  6  1  0
  4  7  1  0
  7  8  2  0
  8  9  1  0
  9 10  1  0
 10 11  2  0
  9 12  1  0
 12 13  2  0
 13 14  1  0
 14 15  2  0
 15 16  1  0
 16 17  2  0
 17 18  1  0
 18 19  2  0
 18 20  1  0
 20 21  1  0
 20 22  1  0
 22 23  1  0
 23 24  2  0
 24 25  1  0
 25 26  2  0
 26 27  1  0
 27 28  2  0
 15 29  1  0
  6  2  2  0
 11  7  1  0
 21  8  1  0
 17 12  1  0
 28 23  1  0
M  END
>  <Name>  (13) 
Mol_12

>  <MolSmiles>  (13) 
Cc1nc(on1)c2c3n(cn2)-c4ccc(cc4C(=O)N(C3)Cc5ccccc5)Cl

>  <ActivityClass>  (13) 
0.0

$$$$

     RDKit          2D

 27 30  0  0  0  0  0  0  0  0999 V2000
    5.6301   -8.9525    0.0000 C   0  0  0  0  0  0  0  0  0  0  0  0
    4.2691   -8.3220    0.0000 C   0  0  0  0  0  0  0  0  0  0  0  0
    4.1346   -6.8280    0.0000 O   0  0  0  0  0  0  0  0  0  0  0  0
    2.7736   -6.1975    0.0000 C   0  0  0  0  0  0  0  0  0  0  0  0
    1.5470   -7.0609    0.0000 O   0  0  0  0  0  0  0  0  0  0  0  0
    2.6391   -4.7035    0.0000 C   0  0  0  0  0  0  0  0  0  0  0  0
    1.3515   -3.9342    0.0000 C   0  0  0  0  0  0  0  0  0  0  0  0
    1.6852   -2.4718    0.0000 N   0  0  0  0  0  0  0  0  0  0  0  0
    3.1792   -2.3373    0.0000 C   0  0  0  0  0  0  0  0  0  0  0  0
    3.7687   -3.7166    0.0000 N   0  0  0  0  0  0  0  0  0  0  0  0
    0.7500   -1.2990    0.0000 C   0  0  0  0  0  0  0  0  0  0  0  0
    1.5000    0.0000    0.0000 C   0  0  0  0  0  0  0  0  0  0  0  0
    0.7500    1.2990    0.0000 C   0  0  0  0  0  0  0  0  0  0  0  0
   -0.7500    1.2990    0.0000 C   0  0  0  0  0  0  0  0  0  0  0  0
   -1.5000    0.0000    0.0000 C   0  0  0  0  0  0  0  0  0  0  0  0
   -0.7500   -1.2990    0.0000 C   0  0  0  0  0  0  0  0  0  0  0  0
   -1.6852   -2.4718    0.0000 C   0  0  0  0  0  0  0  0  0  0  0  0
   -3.1476   -2.1380    0.0000 O   0  0  0  0  0  0  0  0  0  0  0  0
   -1.3515   -3.9342    0.0000 N   0  0  0  0  0  0  0  0  0  0  0  0
    0.0000   -4.5850    0.0000 C   0  0  0  0  0  0  0  0  0  0  0  0
   -2.5242   -4.8694    0.0000 C   0  0  0  0  0  0  0  0  0  0  0  0
   -2.3006   -6.3527    0.0000 C   0  0  0  0  0  0  0  0  0  0  0  0
   -3.4734   -7.2879    0.0000 C   0  0  0  0  0  0  0  0  0  0  0  0
   -3.2498   -8.7711    0.0000 C   0  0  0  0  0  0  0  0  0  0  0  0
   -1.8535   -9.3192    0.0000 C   0  0  0  0  0  0  0  0  0  0  0  0
   -0.6808   -8.3839    0.0000 C   0  0  0  0  0  0  0  0  0  0  0  0
   -0.9043   -6.9007    0.0000 C   0  0  0  0  0  0  0  0  0  0  0  0
  1  2  1  0
  2  3  1  0
  3  4  1  0
  4  5  2  0
  4  6  1  0
  6  7  2  0
  7  8  1  0
  8  9  1  0
  9 10  2  0
  8 11  1  0
 11 12  2  0
 12 13  1  0
 13 14  2  0
 14 15  1  0
 15 16  2  0
 16 17  1  0
 17 18  2  0
 17 19  1  0
 19 20  1  0
 19 21  1  0
 21 22  1  0
 22 23  2  0
 23 24  1  0
 24 25  2  0
 25 26  1  0
 26 27  2  0
 10  6  1  0
 20  7  1  0
 16 11  1  0
 27 22  1  0
M  END
>  <Name>  (14) 
Mol_13

>  <MolSmiles>  (14) 
CCOC(=O)c1c2n(cn1)-c3ccccc3C(=O)N(C2)Cc4ccccc4

>  <ActivityClass>  (14) 
1.0

$$$$

     RDKit          2D

 19 21  0  0  0  0  0  0  0  0999 V2000
   -3.8230    3.5974    0.0000 C   0  0  0  0  0  0  0  0  0  0  0  0
   -2.4186    3.0703    0.0000 N   0  0  0  0  0  0  0  0  0  0  0  0
   -1.3344    4.1069    0.0000 C   0  0  0  0  0  0  0  0  0  0  0  0
    0.1520    3.9056    0.0000 C   0  0  0  0  0  0  0  0  0  0  0  0
    1.1389    5.0352    0.0000 C   0  0  0  0  0  0  0  0  0  0  0  0
    2.5182    4.4456    0.0000 N   0  0  0  0  0  0  0  0  0  0  0  0
    2.3838    2.9517    0.0000 C   0  0  0  0  0  0  0  0  0  0  0  0
    0.9214    2.6179    0.0000 N   0  0  0  0  0  0  0  0  0  0  0  0
    0.3943    1.2135    0.0000 C   0  0  0  0  0  0  0  0  0  0  0  0
    1.2760    0.0000    0.0000 C   0  0  0  0  0  0  0  0  0  0  0  0
    0.3943   -1.2135    0.0000 C   0  0  0  0  0  0  0  0  0  0  0  0
   -1.0323   -0.7500    0.0000 S   0  0  0  0  0  0  0  0  0  0  0  0
   -1.0323    0.7500    0.0000 C   0  0  0  0  0  0  0  0  0  0  0  0
   -2.2841    1.5763    0.0000 C   0  0  0  0  0  0  0  0  0  0  0  0
   -3.5718    0.8070    0.0000 O   0  0  0  0  0  0  0  0  0  0  0  0
    0.8051    6.4976    0.0000 C   0  0  0  0  0  0  0  0  0  0  0  0
   -0.6282    6.9397    0.0000 O   0  0  0  0  0  0  0  0  0  0  0  0
    1.9047    7.5178    0.0000 O   0  0  0  0  0  0  0  0  0  0  0  0
    1.5709    8.9802    0.0000 C   0  0  0  0  0  0  0  0  0  0  0  0
  1  2  1  0
  2  3  1  0
  3  4  1  0
  4  5  2  0
  5  6  1  0
  6  7  2  0
  7  8  1  0
  8  9  1  0
  9 10  1  0
 10 11  2  0
 11 12  1  0
 12 13  1  0
 13 14  1  0
 14 15  2  0
  5 16  1  0
 16 17  2  0
 16 18  1  0
 18 19  1  0
 14  2  1  0
  8  4  1  0
 13  9  2  0
M  END
>  <Name>  (15) 
Mol_14

>  <MolSmiles>  (15) 
CN1Cc2c(ncn2-c3ccsc3C1=O)C(=O)OC

>  <ActivityClass>  (15) 
1.0

$$$$

     RDKit          2D

 21 23  0  0  0  0  0  0  0  0999 V2000
    2.3367   11.4629    0.0000 C   0  0  0  0  0  0  0  0  0  0  0  0
    2.6705   10.0005    0.0000 C   0  0  0  0  0  0  0  0  0  0  0  0
    1.5709    8.9802    0.0000 C   0  0  0  0  0  0  0  0  0  0  0  0
    1.9047    7.5178    0.0000 O   0  0  0  0  0  0  0  0  0  0  0  0
    0.8051    6.4976    0.0000 C   0  0  0  0  0  0  0  0  0  0  0  0
   -0.6282    6.9397    0.0000 O   0  0  0  0  0  0  0  0  0  0  0  0
    1.1389    5.0352    0.0000 C   0  0  0  0  0  0  0  0  0  0  0  0
    0.1520    3.9056    0.0000 C   0  0  0  0  0  0  0  0  0  0  0  0
    0.9214    2.6179    0.0000 N   0  0  0  0  0  0  0  0  0  0  0  0
    2.3838    2.9517    0.0000 C   0  0  0  0  0  0  0  0  0  0  0  0
    2.5182    4.4456    0.0000 N   0  0  0  0  0  0  0  0  0  0  0  0
    0.3943    1.2135    0.0000 C   0  0  0  0  0  0  0  0  0  0  0  0
    1.2760    0.0000    0.0000 C   0  0  0  0  0  0  0  0  0  0  0  0
    0.3943   -1.2135    0.0000 C   0  0  0  0  0  0  0  0  0  0  0  0
   -1.0323   -0.7500    0.0000 S   0  0  0  0  0  0  0  0  0  0  0  0
   -1.0323    0.7500    0.0000 C   0  0  0  0  0  0  0  0  0  0  0  0
   -2.2841    1.5763    0.0000 C   0  0  0  0  0  0  0  0  0  0  0  0
   -3.5718    0.8070    0.0000 O   0  0  0  0  0  0  0  0  0  0  0  0
   -2.4186    3.0703    0.0000 N   0  0  0  0  0  0  0  0  0  0  0  0
   -1.3344    4.1069    0.0000 C   0  0  0  0  0  0  0  0  0  0  0  0
   -3.8230    3.5974    0.0000 C   0  0  0  0  0  0  0  0  0  0  0  0
  1  2  1  0
  2  3  1  0
  3  4  1  0
  4  5  1  0
  5  6  2  0
  5  7  1  0
  7  8  2  0
  8  9  1  0
  9 10  1  0
 10 11  2  0
  9 12  1  0
 12 13  1  0
 13 14  2  0
 14 15  1  0
 15 16  1  0
 16 17  1  0
 17 18  2  0
 17 19  1  0
 19 20  1  0
 19 21  1  0
 11  7  1  0
 20  8  1  0
 16 12  2  0
M  END
>  <Name>  (16) 
Mol_15

>  <MolSmiles>  (16) 
CCCOC(=O)c1c2n(cn1)-c3ccsc3C(=O)N(C2)C

>  <ActivityClass>  (16) 
1.0

$$$$

     RDKit          2D

 21 23  0  0  0  0  0  0  0  0999 V2000
   -2.5242   -4.8694    0.0000 C   0  0  0  0  0  0  0  0  0  0  0  0
   -1.3515   -3.9342    0.0000 N   0  0  0  0  0  0  0  0  0  0  0  0
   -0.0000   -4.5850    0.0000 C   0  0  0  0  0  0  0  0  0  0  0  0
    1.3515   -3.9342    0.0000 C   0  0  0  0  0  0  0  0  0  0  0  0
    2.6391   -4.7035    0.0000 C   0  0  0  0  0  0  0  0  0  0  0  0
    3.7687   -3.7166    0.0000 N   0  0  0  0  0  0  0  0  0  0  0  0
    3.1792   -2.3373    0.0000 C   0  0  0  0  0  0  0  0  0  0  0  0
    1.6852   -2.4718    0.0000 N   0  0  0  0  0  0  0  0  0  0  0  0
    0.7500   -1.2990    0.0000 C   0  0  0  0  0  0  0  0  0  0  0  0
    1.5000    0.0000    0.0000 C   0  0  0  0  0  0  0  0  0  0  0  0
    0.7500    1.2990    0.0000 C   0  0  0  0  0  0  0  0  0  0  0  0
   -0.7500    1.2990    0.0000 C   0  0  0  0  0  0  0  0  0  0  0  0
   -1.5000    0.0000    0.0000 C   0  0  0  0  0  0  0  0  0  0  0  0
   -0.7500   -1.2990    0.0000 C   0  0  0  0  0  0  0  0  0  0  0  0
   -1.6852   -2.4718    0.0000 C   0  0  0  0  0  0  0  0  0  0  0  0
   -3.1476   -2.1380    0.0000 O   0  0  0  0  0  0  0  0  0  0  0  0
   -1.5000    2.5981    0.0000 F   0  0  0  0  0  0  0  0  0  0  0  0
    2.7736   -6.1975    0.0000 C   0  0  0  0  0  0  0  0  0  0  0  0
    1.5470   -7.0609    0.0000 O   0  0  0  0  0  0  0  0  0  0  0  0
    4.1346   -6.8280    0.0000 O   0  0  0  0  0  0  0  0  0  0  0  0
    4.2691   -8.3220    0.0000 C   0  0  0  0  0  0  0  0  0  0  0  0
  1  2  1  0
  2  3  1  0
  3  4  1  0
  4  5  2  0
  5  6  1  0
  6  7  2  0
  7  8  1  0
  8  9  1  0
  9 10  2  0
 10 11  1  0
 11 12  2  0
 12 13  1  0
 13 14  2  0
 14 15  1  0
 15 16  2  0
 12 17  1  0
  5 18  1  0
 18 19  2  0
 18 20  1  0
 20 21  1  0
 15  2  1  0
  8  4  1  0
 14  9  1  0
M  END
>  <Name>  (17) 
Mol_16

>  <MolSmiles>  (17) 
CN1Cc2c(ncn2-c3ccc(cc3C1=O)F)C(=O)OC

>  <ActivityClass>  (17) 
1.0

$$$$

     RDKit          2D

 20 22  0  0  0  0  0  0  0  0999 V2000
   -2.5242   -4.8694    0.0000 C   0  0  0  0  0  0  0  0  0  0  0  0
   -1.3515   -3.9342    0.0000 N   0  0  0  0  0  0  0  0  0  0  0  0
   -0.0000   -4.5850    0.0000 C   0  0  0  0  0  0  0  0  0  0  0  0
    1.3515   -3.9342    0.0000 C   0  0  0  0  0  0  0  0  0  0  0  0
    2.6391   -4.7035    0.0000 C   0  0  0  0  0  0  0  0  0  0  0  0
    3.7687   -3.7166    0.0000 N   0  0  0  0  0  0  0  0  0  0  0  0
    3.1792   -2.3373    0.0000 C   0  0  0  0  0  0  0  0  0  0  0  0
    1.6852   -2.4718    0.0000 N   0  0  0  0  0  0  0  0  0  0  0  0
    0.7500   -1.2990    0.0000 C   0  0  0  0  0  0  0  0  0  0  0  0
    1.5000    0.0000    0.0000 C   0  0  0  0  0  0  0  0  0  0  0  0
    0.7500    1.2990    0.0000 C   0  0  0  0  0  0  0  0  0  0  0  0
   -0.7500    1.2990    0.0000 C   0  0  0  0  0  0  0  0  0  0  0  0
   -1.5000    0.0000    0.0000 C   0  0  0  0  0  0  0  0  0  0  0  0
   -0.7500   -1.2990    0.0000 C   0  0  0  0  0  0  0  0  0  0  0  0
   -1.6852   -2.4718    0.0000 C   0  0  0  0  0  0  0  0  0  0  0  0
   -3.1476   -2.1380    0.0000 O   0  0  0  0  0  0  0  0  0  0  0  0
    2.7736   -6.1975    0.0000 C   0  0  0  0  0  0  0  0  0  0  0  0
    1.5470   -7.0609    0.0000 O   0  0  0  0  0  0  0  0  0  0  0  0
    4.1346   -6.8280    0.0000 O   0  0  0  0  0  0  0  0  0  0  0  0
    4.2691   -8.3220    0.0000 C   0  0  0  0  0  0  0  0  0  0  0  0
  1  2  1  0
  2  3  1  0
  3  4  1  0
  4  5  2  0
  5  6  1  0
  6  7  2  0
  7  8  1  0
  8  9  1  0
  9 10  2  0
 10 11  1  0
 11 12  2  0
 12 13  1  0
 13 14  2  0
 14 15  1  0
 15 16  2  0
  5 17  1  0
 17 18  2  0
 17 19  1  0
 19 20  1  0
 15  2  1  0
  8  4  1  0
 14  9  1  0
M  END
>  <Name>  (18) 
Mol_17

>  <MolSmiles>  (18) 
CN1Cc2c(ncn2-c3ccccc3C1=O)C(=O)OC

>  <ActivityClass>  (18) 
1.0

$$$$

     RDKit          2D

 23 26  0  0  0  0  0  0  0  0999 V2000
    5.6301   -8.9525    0.0000 C   0  0  0  0  0  0  0  0  0  0  0  0
    4.2691   -8.3220    0.0000 C   0  0  0  0  0  0  0  0  0  0  0  0
    4.1346   -6.8280    0.0000 O   0  0  0  0  0  0  0  0  0  0  0  0
    2.7736   -6.1975    0.0000 C   0  0  0  0  0  0  0  0  0  0  0  0
    1.5470   -7.0609    0.0000 O   0  0  0  0  0  0  0  0  0  0  0  0
    2.6391   -4.7035    0.0000 C   0  0  0  0  0  0  0  0  0  0  0  0
    1.3515   -3.9342    0.0000 C   0  0  0  0  0  0  0  0  0  0  0  0
    1.6852   -2.4718    0.0000 N   0  0  0  0  0  0  0  0  0  0  0  0
    3.1792   -2.3373    0.0000 C   0  0  0  0  0  0  0  0  0  0  0  0
    3.7687   -3.7166    0.0000 N   0  0  0  0  0  0  0  0  0  0  0  0
    0.7500   -1.2990    0.0000 C   0  0  0  0  0  0  0  0  0  0  0  0
    1.5000    0.0000    0.0000 C   0  0  0  0  0  0  0  0  0  0  0  0
    0.7500    1.2990    0.0000 C   0  0  0  0  0  0  0  0  0  0  0  0
   -0.7500    1.2990    0.0000 C   0  0  0  0  0  0  0  0  0  0  0  0
   -1.5000    0.0000    0.0000 C   0  0  0  0  0  0  0  0  0  0  0  0
   -0.7500   -1.2990    0.0000 C   0  0  0  0  0  0  0  0  0  0  0  0
   -1.6852   -2.4718    0.0000 C   0  0  0  0  0  0  0  0  0  0  0  0
   -3.1476   -2.1380    0.0000 O   0  0  0  0  0  0  0  0  0  0  0  0
   -1.3515   -3.9342    0.0000 N   0  0  0  0  0  0  0  0  0  0  0  0
    0.0000   -4.5850    0.0000 C   0  0  0  0  0  0  0  0  0  0  0  0
   -0.2013   -6.0714    0.0000 C   0  0  0  0  0  0  0  0  0  0  0  0
   -1.6772   -6.3393    0.0000 C   0  0  0  0  0  0  0  0  0  0  0  0
   -2.3880   -5.0184    0.0000 C   0  0  0  0  0  0  0  0  0  0  0  0
  1  2  1  0
  2  3  1  0
  3  4  1  0
  4  5  2  0
  4  6  1  0
  6  7  2  0
  7  8  1  0
  8  9  1  0
  9 10  2  0
  8 11  1  0
 11 12  2  0
 12 13  1  0
 13 14  2  0
 14 15  1  0
 15 16  2  0
 16 17  1  0
 17 18  2  0
 17 19  1  0
 19 20  1  0
 20 21  1  0
 21 22  1  0
 22 23  1  0
 10  6  1  0
 20  7  1  0
 16 11  1  0
 23 19  1  0
M  END
>  <Name>  (19) 
Mol_18

>  <MolSmiles>  (19) 
CCOC(=O)c1c2n(cn1)-c3ccccc3C(=O)N4C2CCC4

>  <ActivityClass>  (19) 
1.0

$$$$

     RDKit          2D

 24 27  0  0  0  0  0  0  0  0999 V2000
    7.4819    1.9475    0.0000 C   0  0  0  0  0  0  0  0  0  0  0  0
    6.0625    1.4627    0.0000 C   0  0  0  0  0  0  0  0  0  0  0  0
    4.9329    2.4496    0.0000 O   0  0  0  0  0  0  0  0  0  0  0  0
    3.5134    1.9648    0.0000 C   0  0  0  0  0  0  0  0  0  0  0  0
    3.2235    0.4930    0.0000 O   0  0  0  0  0  0  0  0  0  0  0  0
    2.3838    2.9517    0.0000 C   0  0  0  0  0  0  0  0  0  0  0  0
    0.9214    2.6179    0.0000 C   0  0  0  0  0  0  0  0  0  0  0  0
    0.1520    3.9056    0.0000 N   0  0  0  0  0  0  0  0  0  0  0  0
    1.1389    5.0352    0.0000 C   0  0  0  0  0  0  0  0  0  0  0  0
    2.5182    4.4456    0.0000 N   0  0  0  0  0  0  0  0  0  0  0  0
   -1.3344    4.1069    0.0000 C   0  0  0  0  0  0  0  0  0  0  0  0
   -1.6900    5.5641    0.0000 C   0  0  0  0  0  0  0  0  0  0  0  0
   -3.1298    5.9848    0.0000 C   0  0  0  0  0  0  0  0  0  0  0  0
   -4.2140    4.9482    0.0000 C   0  0  0  0  0  0  0  0  0  0  0  0
   -3.8584    3.4909    0.0000 C   0  0  0  0  0  0  0  0  0  0  0  0
   -2.4186    3.0703    0.0000 C   0  0  0  0  0  0  0  0  0  0  0  0
   -2.2841    1.5763    0.0000 C   0  0  0  0  0  0  0  0  0  0  0  0
   -3.5718    0.8070    0.0000 O   0  0  0  0  0  0  0  0  0  0  0  0
   -1.0323    0.7500    0.0000 N   0  0  0  0  0  0  0  0  0  0  0  0
    0.3943    1.2135    0.0000 C   0  0  0  0  0  0  0  0  0  0  0  0
    1.2760    0.0000    0.0000 C   0  0  0  0  0  0  0  0  0  0  0  0
    0.3943   -1.2135    0.0000 C   0  0  0  0  0  0  0  0  0  0  0  0
   -1.0323   -0.7500    0.0000 C   0  0  0  0  0  0  0  0  0  0  0  0
   -5.6539    5.3688    0.0000 Cl  0  0  0  0  0  0  0  0  0  0  0  0
  1  2  1  0
  2  3  1  0
  3  4  1  0
  4  5  2  0
  4  6  1  0
  6  7  2  0
  7  8  1  0
  8  9  1  0
  9 10  2  0
  8 11  1  0
 11 12  2  0
 12 13  1  0
 13 14  2  0
 14 15  1  0
 15 16  2  0
 16 17  1  0
 17 18  2  0
 17 19  1  0
 19 20  1  0
 20 21  1  0
 21 22  1  0
 22 23  1  0
 14 24  1  0
 10  6  1  0
 20  7  1  0
 16 11  1  0
 23 19  1  0
M  END
>  <Name>  (20) 
Mol_19

>  <MolSmiles>  (20) 
CCOC(=O)c1c2n(cn1)-c3ccc(cc3C(=O)N4C2CCC4)Cl

>  <ActivityClass>  (20) 
0.0

$$$$

     RDKit          2D

 21 23  0  0  0  0  0  0  0  0999 V2000
    5.6301   -8.9525    0.0000 C   0  0  0  0  0  0  0  0  0  0  0  0
    4.2691   -8.3220    0.0000 C   0  0  0  0  0  0  0  0  0  0  0  0
    4.1346   -6.8280    0.0000 O   0  0  0  0  0  0  0  0  0  0  0  0
    2.7736   -6.1975    0.0000 C   0  0  0  0  0  0  0  0  0  0  0  0
    1.5470   -7.0609    0.0000 O   0  0  0  0  0  0  0  0  0  0  0  0
    2.6391   -4.7035    0.0000 C   0  0  0  0  0  0  0  0  0  0  0  0
    1.3515   -3.9342    0.0000 C   0  0  0  0  0  0  0  0  0  0  0  0
    1.6852   -2.4718    0.0000 N   0  0  0  0  0  0  0  0  0  0  0  0
    3.1792   -2.3373    0.0000 C   0  0  0  0  0  0  0  0  0  0  0  0
    3.7687   -3.7166    0.0000 N   0  0  0  0  0  0  0  0  0  0  0  0
    0.7500   -1.2990    0.0000 C   0  0  0  0  0  0  0  0  0  0  0  0
    1.5000    0.0000    0.0000 C   0  0  0  0  0  0  0  0  0  0  0  0
    0.7500    1.2990    0.0000 C   0  0  0  0  0  0  0  0  0  0  0  0
   -0.7500    1.2990    0.0000 C   0  0  0  0  0  0  0  0  0  0  0  0
   -1.5000    0.0000    0.0000 C   0  0  0  0  0  0  0  0  0  0  0  0
   -0.7500   -1.2990    0.0000 C   0  0  0  0  0  0  0  0  0  0  0  0
   -1.6852   -2.4718    0.0000 C   0  0  0  0  0  0  0  0  0  0  0  0
   -3.1476   -2.1380    0.0000 O   0  0  0  0  0  0  0  0  0  0  0  0
   -1.3515   -3.9342    0.0000 N   0  0  0  0  0  0  0  0  0  0  0  0
    0.0000   -4.5850    0.0000 C   0  0  0  0  0  0  0  0  0  0  0  0
   -2.5242   -4.8694    0.0000 C   0  0  0  0  0  0  0  0  0  0  0  0
  1  2  1  0
  2  3  1  0
  3  4  1  0
  4  5  2  0
  4  6  1  0
  6  7  2  0
  7  8  1  0
  8  9  1  0
  9 10  2  0
  8 11  1  0
 11 12  2  0
 12 13  1  0
 13 14  2  0
 14 15  1  0
 15 16  2  0
 16 17  1  0
 17 18  2  0
 17 19  1  0
 19 20  1  0
 19 21  1  0
 10  6  1  0
 20  7  1  0
 16 11  1  0
M  END
>  <Name>  (21) 
Mol_20

>  <MolSmiles>  (21) 
CCOC(=O)c1c2n(cn1)-c3ccccc3C(=O)N(C2)C

>  <ActivityClass>  (21) 
1.0

$$$$

     RDKit          2D

 22 24  0  0  0  0  0  0  0  0999 V2000
    5.6301   -8.9525    0.0000 C   0  0  0  0  0  0  0  0  0  0  0  0
    4.2691   -8.3220    0.0000 C   0  0  0  0  0  0  0  0  0  0  0  0
    4.1346   -6.8280    0.0000 O   0  0  0  0  0  0  0  0  0  0  0  0
    2.7736   -6.1975    0.0000 C   0  0  0  0  0  0  0  0  0  0  0  0
    1.5470   -7.0609    0.0000 O   0  0  0  0  0  0  0  0  0  0  0  0
    2.6391   -4.7035    0.0000 C   0  0  0  0  0  0  0  0  0  0  0  0
    1.3515   -3.9342    0.0000 C   0  0  0  0  0  0  0  0  0  0  0  0
    1.6852   -2.4718    0.0000 N   0  0  0  0  0  0  0  0  0  0  0  0
    3.1792   -2.3373    0.0000 C   0  0  0  0  0  0  0  0  0  0  0  0
    3.7687   -3.7166    0.0000 N   0  0  0  0  0  0  0  0  0  0  0  0
    0.7500   -1.2990    0.0000 C   0  0  0  0  0  0  0  0  0  0  0  0
    1.5000    0.0000    0.0000 C   0  0  0  0  0  0  0  0  0  0  0  0
    0.7500    1.2990    0.0000 C   0  0  0  0  0  0  0  0  0  0  0  0
   -0.7500    1.2990    0.0000 C   0  0  0  0  0  0  0  0  0  0  0  0
   -1.5000    0.0000    0.0000 C   0  0  0  0  0  0  0  0  0  0  0  0
   -0.7500   -1.2990    0.0000 C   0  0  0  0  0  0  0  0  0  0  0  0
   -1.6852   -2.4718    0.0000 C   0  0  0  0  0  0  0  0  0  0  0  0
   -3.1476   -2.1380    0.0000 O   0  0  0  0  0  0  0  0  0  0  0  0
   -1.3515   -3.9342    0.0000 N   0  0  0  0  0  0  0  0  0  0  0  0
    0.0000   -4.5850    0.0000 C   0  0  0  0  0  0  0  0  0  0  0  0
   -2.5242   -4.8694    0.0000 C   0  0  0  0  0  0  0  0  0  0  0  0
   -1.5000    2.5981    0.0000 Cl  0  0  0  0  0  0  0  0  0  0  0  0
  1  2  1  0
  2  3  1  0
  3  4  1  0
  4  5  2  0
  4  6  1  0
  6  7  2  0
  7  8  1  0
  8  9  1  0
  9 10  2  0
  8 11  1  0
 11 12  2  0
 12 13  1  0
 13 14  2  0
 14 15  1  0
 15 16  2  0
 16 17  1  0
 17 18  2  0
 17 19  1  0
 19 20  1  0
 19 21  1  0
 14 22  1  0
 10  6  1  0
 20  7  1  0
 16 11  1  0
M  END
>  <Name>  (22) 
Mol_21

>  <MolSmiles>  (22) 
CCOC(=O)c1c2n(cn1)-c3ccc(cc3C(=O)N(C2)C)Cl

>  <ActivityClass>  (22) 
0.0

$$$$

     RDKit          2D

 22 24  0  0  0  0  0  0  0  0999 V2000
    5.6301   -8.9525    0.0000 C   0  0  0  0  0  0  0  0  0  0  0  0
    4.2691   -8.3220    0.0000 C   0  0  0  0  0  0  0  0  0  0  0  0
    4.1346   -6.8280    0.0000 O   0  0  0  0  0  0  0  0  0  0  0  0
    2.7736   -6.1975    0.0000 C   0  0  0  0  0  0  0  0  0  0  0  0
    1.5470   -7.0609    0.0000 O   0  0  0  0  0  0  0  0  0  0  0  0
    2.6391   -4.7035    0.0000 C   0  0  0  0  0  0  0  0  0  0  0  0
    1.3515   -3.9342    0.0000 C   0  0  0  0  0  0  0  0  0  0  0  0
    1.6852   -2.4718    0.0000 N   0  0  0  0  0  0  0  0  0  0  0  0
    3.1792   -2.3373    0.0000 C   0  0  0  0  0  0  0  0  0  0  0  0
    3.7687   -3.7166    0.0000 N   0  0  0  0  0  0  0  0  0  0  0  0
    0.7500   -1.2990    0.0000 C   0  0  0  0  0  0  0  0  0  0  0  0
    1.5000    0.0000    0.0000 C   0  0  0  0  0  0  0  0  0  0  0  0
    0.7500    1.2990    0.0000 C   0  0  0  0  0  0  0  0  0  0  0  0
   -0.7500    1.2990    0.0000 C   0  0  0  0  0  0  0  0  0  0  0  0
   -1.5000    0.0000    0.0000 C   0  0  0  0  0  0  0  0  0  0  0  0
   -0.7500   -1.2990    0.0000 C   0  0  0  0  0  0  0  0  0  0  0  0
   -1.6852   -2.4718    0.0000 C   0  0  0  0  0  0  0  0  0  0  0  0
   -3.1476   -2.1380    0.0000 O   0  0  0  0  0  0  0  0  0  0  0  0
   -1.3515   -3.9342    0.0000 N   0  0  0  0  0  0  0  0  0  0  0  0
    0.0000   -4.5850    0.0000 C   0  0  0  0  0  0  0  0  0  0  0  0
   -2.5242   -4.8694    0.0000 C   0  0  0  0  0  0  0  0  0  0  0  0
   -1.5000    2.5981    0.0000 F   0  0  0  0  0  0  0  0  0  0  0  0
  1  2  1  0
  2  3  1  0
  3  4  1  0
  4  5  2  0
  4  6  1  0
  6  7  2  0
  7  8  1  0
  8  9  1  0
  9 10  2  0
  8 11  1  0
 11 12  2  0
 12 13  1  0
 13 14  2  0
 14 15  1  0
 15 16  2  0
 16 17  1  0
 17 18  2  0
 17 19  1  0
 19 20  1  0
 19 21  1  0
 14 22  1  0
 10  6  1  0
 20  7  1  0
 16 11  1  0
M  END
>  <Name>  (23) 
Mol_22

>  <MolSmiles>  (23) 
CCOC(=O)c1c2n(cn1)-c3ccc(cc3C(=O)N(C2)C)F

>  <ActivityClass>  (23) 
1.0

$$$$

     RDKit          2D

 22 24  0  0  0  0  0  0  0  0999 V2000
    5.6301   -8.9525    0.0000 C   0  0  0  0  0  0  0  0  0  0  0  0
    4.2691   -8.3220    0.0000 C   0  0  0  0  0  0  0  0  0  0  0  0
    4.1346   -6.8280    0.0000 O   0  0  0  0  0  0  0  0  0  0  0  0
    2.7736   -6.1975    0.0000 C   0  0  0  0  0  0  0  0  0  0  0  0
    1.5470   -7.0609    0.0000 O   0  0  0  0  0  0  0  0  0  0  0  0
    2.6391   -4.7035    0.0000 C   0  0  0  0  0  0  0  0  0  0  0  0
    1.3515   -3.9342    0.0000 C   0  0  0  0  0  0  0  0  0  0  0  0
    1.6852   -2.4718    0.0000 N   0  0  0  0  0  0  0  0  0  0  0  0
    3.1792   -2.3373    0.0000 C   0  0  0  0  0  0  0  0  0  0  0  0
    3.7687   -3.7166    0.0000 N   0  0  0  0  0  0  0  0  0  0  0  0
    0.7500   -1.2990    0.0000 C   0  0  0  0  0  0  0  0  0  0  0  0
    1.5000    0.0000    0.0000 C   0  0  0  0  0  0  0  0  0  0  0  0
    0.7500    1.2990    0.0000 C   0  0  0  0  0  0  0  0  0  0  0  0
   -0.7500    1.2990    0.0000 C   0  0  0  0  0  0  0  0  0  0  0  0
   -1.5000    0.0000    0.0000 C   0  0  0  0  0  0  0  0  0  0  0  0
   -0.7500   -1.2990    0.0000 C   0  0  0  0  0  0  0  0  0  0  0  0
   -1.6852   -2.4718    0.0000 C   0  0  0  0  0  0  0  0  0  0  0  0
   -3.1476   -2.1380    0.0000 O   0  0  0  0  0  0  0  0  0  0  0  0
   -1.3515   -3.9342    0.0000 N   0  0  0  0  0  0  0  0  0  0  0  0
    0.0000   -4.5850    0.0000 C   0  0  0  0  0  0  0  0  0  0  0  0
   -2.5242   -4.8694    0.0000 C   0  0  0  0  0  0  0  0  0  0  0  0
   -3.0000    0.0000    0.0000 Cl  0  0  0  0  0  0  0  0  0  0  0  0
  1  2  1  0
  2  3  1  0
  3  4  1  0
  4  5  2  0
  4  6  1  0
  6  7  2  0
  7  8  1  0
  8  9  1  0
  9 10  2  0
  8 11  1  0
 11 12  2  0
 12 13  1  0
 13 14  2  0
 14 15  1  0
 15 16  2  0
 16 17  1  0
 17 18  2  0
 17 19  1  0
 19 20  1  0
 19 21  1  0
 15 22  1  0
 10  6  1  0
 20  7  1  0
 16 11  1  0
M  END
>  <Name>  (24) 
Mol_23

>  <MolSmiles>  (24) 
CCOC(=O)c1c2n(cn1)-c3cccc(c3C(=O)N(C2)C)Cl

>  <ActivityClass>  (24) 
1.0

$$$$

     RDKit          2D

 24 26  0  0  0  0  0  0  0  0999 V2000
    5.6301   -8.9525    0.0000 C   0  0  0  0  0  0  0  0  0  0  0  0
    4.2691   -8.3220    0.0000 C   0  0  0  0  0  0  0  0  0  0  0  0
    4.1346   -6.8280    0.0000 O   0  0  0  0  0  0  0  0  0  0  0  0
    2.7736   -6.1975    0.0000 C   0  0  0  0  0  0  0  0  0  0  0  0
    1.5470   -7.0609    0.0000 O   0  0  0  0  0  0  0  0  0  0  0  0
    2.6391   -4.7035    0.0000 C   0  0  0  0  0  0  0  0  0  0  0  0
    1.3515   -3.9342    0.0000 C   0  0  0  0  0  0  0  0  0  0  0  0
    1.6852   -2.4718    0.0000 N   0  0  0  0  0  0  0  0  0  0  0  0
    3.1792   -2.3373    0.0000 C   0  0  0  0  0  0  0  0  0  0  0  0
    3.7687   -3.7166    0.0000 N   0  0  0  0  0  0  0  0  0  0  0  0
    0.7500   -1.2990    0.0000 C   0  0  0  0  0  0  0  0  0  0  0  0
    1.5000    0.0000    0.0000 C   0  0  0  0  0  0  0  0  0  0  0  0
    0.7500    1.2990    0.0000 C   0  0  0  0  0  0  0  0  0  0  0  0
   -0.7500    1.2990    0.0000 C   0  0  0  0  0  0  0  0  0  0  0  0
   -1.5000    0.0000    0.0000 C   0  0  0  0  0  0  0  0  0  0  0  0
   -0.7500   -1.2990    0.0000 C   0  0  0  0  0  0  0  0  0  0  0  0
   -1.6852   -2.4718    0.0000 C   0  0  0  0  0  0  0  0  0  0  0  0
   -3.1476   -2.1380    0.0000 O   0  0  0  0  0  0  0  0  0  0  0  0
   -1.3515   -3.9342    0.0000 N   0  0  0  0  0  0  0  0  0  0  0  0
    0.0000   -4.5850    0.0000 C   0  0  0  0  0  0  0  0  0  0  0  0
   -2.5242   -4.8694    0.0000 C   0  0  0  0  0  0  0  0  0  0  0  0
   -1.5000    2.5981    0.0000 N   0  0  0  0  0  0  0  0  0  0  0  0
   -0.7500    3.8971    0.0000 N   0  0  0  0  0  4  0  0  0  0  0  0
    0.0000    5.1962    0.0000 N   0  0  0  0  0  2  0  0  0  0  0  0
  1  2  1  0
  2  3  1  0
  3  4  1  0
  4  5  2  0
  4  6  1  0
  6  7  2  0
  7  8  1  0
  8  9  1  0
  9 10  2  0
  8 11  1  0
 11 12  2  0
 12 13  1  0
 13 14  2  0
 14 15  1  0
 15 16  2  0
 16 17  1  0
 17 18  2  0
 17 19  1  0
 19 20  1  0
 19 21  1  0
 14 22  1  0
 22 23  2  0
 23 24  2  0
 10  6  1  0
 20  7  1  0
 16 11  1  0
M  CHG  2  23   1  24  -1
M  END
>  <Name>  (25) 
Mol_24

>  <MolSmiles>  (25) 
CCOC(=O)c1c2n(cn1)-c3ccc(cc3C(=O)N(C2)C)N=[N+]=[N-]

>  <ActivityClass>  (25) 
0.0

$$$$

     RDKit          2D

 24 27  0  0  0  0  0  0  0  0999 V2000
    7.4819    1.9475    0.0000 C   0  0  0  0  0  0  0  0  0  0  0  0
    6.0625    1.4627    0.0000 C   0  0  0  0  0  0  0  0  0  0  0  0
    4.9329    2.4496    0.0000 O   0  0  0  0  0  0  0  0  0  0  0  0
    3.5134    1.9648    0.0000 C   0  0  0  0  0  0  0  0  0  0  0  0
    3.2235    0.4930    0.0000 O   0  0  0  0  0  0  0  0  0  0  0  0
    2.3838    2.9517    0.0000 C   0  0  0  0  0  0  0  0  0  0  0  0
    0.9214    2.6179    0.0000 C   0  0  0  0  0  0  0  0  0  0  0  0
    0.1520    3.9056    0.0000 N   0  0  0  0  0  0  0  0  0  0  0  0
    1.1389    5.0352    0.0000 C   0  0  0  0  0  0  0  0  0  0  0  0
    2.5182    4.4456    0.0000 N   0  0  0  0  0  0  0  0  0  0  0  0
   -1.3344    4.1069    0.0000 C   0  0  0  0  0  0  0  0  0  0  0  0
   -1.6900    5.5641    0.0000 C   0  0  0  0  0  0  0  0  0  0  0  0
   -3.1298    5.9848    0.0000 C   0  0  0  0  0  0  0  0  0  0  0  0
   -4.2140    4.9482    0.0000 C   0  0  0  0  0  0  0  0  0  0  0  0
   -3.8584    3.4909    0.0000 C   0  0  0  0  0  0  0  0  0  0  0  0
   -2.4186    3.0703    0.0000 C   0  0  0  0  0  0  0  0  0  0  0  0
   -2.2841    1.5763    0.0000 C   0  0  0  0  0  0  0  0  0  0  0  0
   -3.5718    0.8070    0.0000 O   0  0  0  0  0  0  0  0  0  0  0  0
   -1.0323    0.7500    0.0000 N   0  0  0  0  0  0  0  0  0  0  0  0
    0.3943    1.2135    0.0000 C   0  0  0  0  0  0  0  0  0  0  0  0
    1.2760    0.0000    0.0000 C   0  0  0  0  0  0  0  0  0  0  0  0
    0.3943   -1.2135    0.0000 C   0  0  0  0  0  0  0  0  0  0  0  0
   -1.0323   -0.7500    0.0000 C   0  0  0  0  0  0  0  0  0  0  0  0
   -4.9426    2.4544    0.0000 Cl  0  0  0  0  0  0  0  0  0  0  0  0
  1  2  1  0
  2  3  1  0
  3  4  1  0
  4  5  2  0
  4  6  1  0
  6  7  2  0
  7  8  1  0
  8  9  1  0
  9 10  2  0
  8 11  1  0
 11 12  2  0
 12 13  1  0
 13 14  2  0
 14 15  1  0
 15 16  2  0
 16 17  1  0
 17 18  2  0
 17 19  1  0
 19 20  1  0
 20 21  1  0
 21 22  1  0
 22 23  1  0
 15 24  1  0
 10  6  1  0
 20  7  1  0
 16 11  1  0
 23 19  1  0
M  END
>  <Name>  (26) 
Mol_25

>  <MolSmiles>  (26) 
CCOC(=O)c1c2n(cn1)-c3cccc(c3C(=O)N4C2CCC4)Cl

>  <ActivityClass>  (26) 
1.0

$$$$

     RDKit          2D

 22 24  0  0  0  0  0  0  0  0999 V2000
    5.6301   -8.9525    0.0000 C   0  0  0  0  0  0  0  0  0  0  0  0
    4.2691   -8.3220    0.0000 C   0  0  0  0  0  0  0  0  0  0  0  0
    4.1346   -6.8280    0.0000 O   0  0  0  0  0  0  0  0  0  0  0  0
    2.7736   -6.1975    0.0000 C   0  0  0  0  0  0  0  0  0  0  0  0
    1.5470   -7.0609    0.0000 O   0  0  0  0  0  0  0  0  0  0  0  0
    2.6391   -4.7035    0.0000 C   0  0  0  0  0  0  0  0  0  0  0  0
    1.3515   -3.9342    0.0000 C   0  0  0  0  0  0  0  0  0  0  0  0
    1.6852   -2.4718    0.0000 N   0  0  0  0  0  0  0  0  0  0  0  0
    3.1792   -2.3373    0.0000 C   0  0  0  0  0  0  0  0  0  0  0  0
    3.7687   -3.7166    0.0000 N   0  0  0  0  0  0  0  0  0  0  0  0
    0.7500   -1.2990    0.0000 C   0  0  0  0  0  0  0  0  0  0  0  0
    1.5000    0.0000    0.0000 C   0  0  0  0  0  0  0  0  0  0  0  0
    0.7500    1.2990    0.0000 C   0  0  0  0  0  0  0  0  0  0  0  0
   -0.7500    1.2990    0.0000 C   0  0  0  0  0  0  0  0  0  0  0  0
   -1.5000    0.0000    0.0000 C   0  0  0  0  0  0  0  0  0  0  0  0
   -0.7500   -1.2990    0.0000 C   0  0  0  0  0  0  0  0  0  0  0  0
   -1.6852   -2.4718    0.0000 C   0  0  0  0  0  0  0  0  0  0  0  0
   -3.1476   -2.1380    0.0000 O   0  0  0  0  0  0  0  0  0  0  0  0
   -1.3515   -3.9342    0.0000 N   0  0  0  0  0  0  0  0  0  0  0  0
    0.0000   -4.5850    0.0000 C   0  0  0  0  0  0  0  0  0  0  0  0
   -2.5242   -4.8694    0.0000 C   0  0  0  0  0  0  0  0  0  0  0  0
   -3.0000    0.0000    0.0000 F   0  0  0  0  0  0  0  0  0  0  0  0
  1  2  1  0
  2  3  1  0
  3  4  1  0
  4  5  2  0
  4  6  1  0
  6  7  2  0
  7  8  1  0
  8  9  1  0
  9 10  2  0
  8 11  1  0
 11 12  2  0
 12 13  1  0
 13 14  2  0
 14 15  1  0
 15 16  2  0
 16 17  1  0
 17 18  2  0
 17 19  1  0
 19 20  1  0
 19 21  1  0
 15 22  1  0
 10  6  1  0
 20  7  1  0
 16 11  1  0
M  END
>  <Name>  (27) 
Mol_26

>  <MolSmiles>  (27) 
CCOC(=O)c1c2n(cn1)-c3cccc(c3C(=O)N(C2)C)F

>  <ActivityClass>  (27) 
1.0

$$$$

     RDKit          2D

 25 28  0  0  0  0  0  0  0  0999 V2000
    5.3038   -5.3105    0.0000 C   0  0  0  0  0  0  0  0  0  0  0  0
    4.9373   -3.8559    0.0000 C   0  0  0  0  0  0  0  0  0  0  0  0
    4.5708   -2.4014    0.0000 C   0  0  0  0  0  0  0  0  0  0  0  0
    6.3918   -3.4894    0.0000 C   0  0  0  0  0  0  0  0  0  0  0  0
    3.4827   -4.2224    0.0000 O   0  0  0  0  0  0  0  0  0  0  0  0
    2.4381   -3.1460    0.0000 C   0  0  0  0  0  0  0  0  0  0  0  0
    2.8479   -1.7031    0.0000 O   0  0  0  0  0  0  0  0  0  0  0  0
    0.9835   -3.5125    0.0000 C   0  0  0  0  0  0  0  0  0  0  0  0
   -0.1679   -2.5512    0.0000 C   0  0  0  0  0  0  0  0  0  0  0  0
   -1.4380   -3.3493    0.0000 N   0  0  0  0  0  0  0  0  0  0  0  0
   -1.0715   -4.8038    0.0000 C   0  0  0  0  0  0  0  0  0  0  0  0
    0.4251   -4.9047    0.0000 N   0  0  0  0  0  0  0  0  0  0  0  0
   -2.8539   -2.8539    0.0000 C   0  0  0  0  0  0  0  0  0  0  0  0
   -3.8323   -3.9908    0.0000 C   0  0  0  0  0  0  0  0  0  0  0  0
   -5.3061   -3.7119    0.0000 C   0  0  0  0  0  0  0  0  0  0  0  0
   -5.8016   -2.2961    0.0000 C   0  0  0  0  0  0  0  0  0  0  0  0
   -4.8231   -1.1592    0.0000 C   0  0  0  0  0  0  0  0  0  0  0  0
   -3.3493   -1.4380    0.0000 C   0  0  0  0  0  0  0  0  0  0  0  0
   -2.5512   -0.1679    0.0000 C   0  0  0  0  0  0  0  0  0  0  0  0
   -3.3493    1.1021    0.0000 O   0  0  0  0  0  0  0  0  0  0  0  0
   -1.0607    0.0000    0.0000 N   0  0  0  0  0  0  0  0  0  0  0  0
   -0.0000   -1.0607    0.0000 C   0  0  0  0  0  0  0  0  0  0  0  0
    1.0607    0.0000    0.0000 C   0  0  0  0  0  0  0  0  0  0  0  0
    0.0000    1.0607    0.0000 C   0  0  0  0  0  0  0  0  0  0  0  0
   -5.3185    0.2567    0.0000 Cl  0  0  0  0  0  0  0  0  0  0  0  0
  1  2  1  0
  2  3  1  0
  2  4  1  0
  2  5  1  0
  5  6  1  0
  6  7  2  0
  6  8  1  0
  8  9  2  0
  9 10  1  0
 10 11  1  0
 11 12  2  0
 10 13  1  0
 13 14  2  0
 14 15  1  0
 15 16  2  0
 16 17  1  0
 17 18  2  0
 18 19  1  0
 19 20  2  0
 19 21  1  0
 21 22  1  0
 22 23  1  0
 23 24  1  0
 17 25  1  0
 12  8  1  0
 22  9  1  0
 18 13  1  0
 24 21  1  0
M  END
>  <Name>  (28) 
Mol_27

>  <MolSmiles>  (28) 
CC(C)(C)OC(=O)c1c2n(cn1)-c3cccc(c3C(=O)N4C2CC4)Cl

>  <ActivityClass>  (28) 
0.0

$$$$

     RDKit          2D

 23 26  0  0  0  0  0  0  0  0999 V2000
    5.9819   -4.9323    0.0000 C   0  0  0  0  0  0  0  0  0  0  0  0
    4.9373   -3.8559    0.0000 C   0  0  0  0  0  0  0  0  0  0  0  0
    3.4827   -4.2224    0.0000 O   0  0  0  0  0  0  0  0  0  0  0  0
    2.4381   -3.1460    0.0000 C   0  0  0  0  0  0  0  0  0  0  0  0
    2.8479   -1.7031    0.0000 O   0  0  0  0  0  0  0  0  0  0  0  0
    0.9835   -3.5125    0.0000 C   0  0  0  0  0  0  0  0  0  0  0  0
   -0.1679   -2.5512    0.0000 C   0  0  0  0  0  0  0  0  0  0  0  0
   -1.4380   -3.3493    0.0000 N   0  0  0  0  0  0  0  0  0  0  0  0
   -1.0715   -4.8038    0.0000 C   0  0  0  0  0  0  0  0  0  0  0  0
    0.4251   -4.9047    0.0000 N   0  0  0  0  0  0  0  0  0  0  0  0
   -2.8539   -2.8539    0.0000 C   0  0  0  0  0  0  0  0  0  0  0  0
   -3.8323   -3.9908    0.0000 C   0  0  0  0  0  0  0  0  0  0  0  0
   -5.3061   -3.7119    0.0000 C   0  0  0  0  0  0  0  0  0  0  0  0
   -5.8016   -2.2961    0.0000 C   0  0  0  0  0  0  0  0  0  0  0  0
   -4.8231   -1.1592    0.0000 C   0  0  0  0  0  0  0  0  0  0  0  0
   -3.3493   -1.4380    0.0000 C   0  0  0  0  0  0  0  0  0  0  0  0
   -2.5512   -0.1679    0.0000 C   0  0  0  0  0  0  0  0  0  0  0  0
   -3.3493    1.1021    0.0000 O   0  0  0  0  0  0  0  0  0  0  0  0
   -1.0607    0.0000    0.0000 N   0  0  0  0  0  0  0  0  0  0  0  0
   -0.0000   -1.0607    0.0000 C   0  0  0  0  0  0  0  0  0  0  0  0
    1.0607    0.0000    0.0000 C   0  0  0  0  0  0  0  0  0  0  0  0
    0.0000    1.0607    0.0000 C   0  0  0  0  0  0  0  0  0  0  0  0
   -5.3185    0.2567    0.0000 Cl  0  0  0  0  0  0  0  0  0  0  0  0
  1  2  1  0
  2  3  1  0
  3  4  1  0
  4  5  2  0
  4  6  1  0
  6  7  2  0
  7  8  1  0
  8  9  1  0
  9 10  2  0
  8 11  1  0
 11 12  2  0
 12 13  1  0
 13 14  2  0
 14 15  1  0
 15 16  2  0
 16 17  1  0
 17 18  2  0
 17 19  1  0
 19 20  1  0
 20 21  1  0
 21 22  1  0
 15 23  1  0
 10  6  1  0
 20  7  1  0
 16 11  1  0
 22 19  1  0
M  END
>  <Name>  (29) 
Mol_28

>  <MolSmiles>  (29) 
CCOC(=O)c1c2n(cn1)-c3cccc(c3C(=O)N4C2CC4)Cl

>  <ActivityClass>  (29) 
1.0

$$$$

     RDKit          2D

 26 29  0  0  0  0  0  0  0  0999 V2000
    7.0494    2.5923    0.0000 C   0  0  0  0  0  0  0  0  0  0  0  0
    6.0625    1.4627    0.0000 C   0  0  0  0  0  0  0  0  0  0  0  0
    5.0755    0.3331    0.0000 C   0  0  0  0  0  0  0  0  0  0  0  0
    7.1921    0.4757    0.0000 C   0  0  0  0  0  0  0  0  0  0  0  0
    4.9329    2.4496    0.0000 O   0  0  0  0  0  0  0  0  0  0  0  0
    3.5134    1.9648    0.0000 C   0  0  0  0  0  0  0  0  0  0  0  0
    3.2235    0.4930    0.0000 O   0  0  0  0  0  0  0  0  0  0  0  0
    2.3838    2.9517    0.0000 C   0  0  0  0  0  0  0  0  0  0  0  0
    0.9214    2.6179    0.0000 C   0  0  0  0  0  0  0  0  0  0  0  0
    0.1520    3.9056    0.0000 N   0  0  0  0  0  0  0  0  0  0  0  0
    1.1389    5.0352    0.0000 C   0  0  0  0  0  0  0  0  0  0  0  0
    2.5182    4.4456    0.0000 N   0  0  0  0  0  0  0  0  0  0  0  0
   -1.3344    4.1069    0.0000 C   0  0  0  0  0  0  0  0  0  0  0  0
   -1.6900    5.5641    0.0000 C   0  0  0  0  0  0  0  0  0  0  0  0
   -3.1298    5.9848    0.0000 C   0  0  0  0  0  0  0  0  0  0  0  0
   -4.2140    4.9482    0.0000 C   0  0  0  0  0  0  0  0  0  0  0  0
   -3.8584    3.4909    0.0000 C   0  0  0  0  0  0  0  0  0  0  0  0
   -2.4186    3.0703    0.0000 C   0  0  0  0  0  0  0  0  0  0  0  0
   -2.2841    1.5763    0.0000 C   0  0  0  0  0  0  0  0  0  0  0  0
   -3.5718    0.8070    0.0000 O   0  0  0  0  0  0  0  0  0  0  0  0
   -1.0323    0.7500    0.0000 N   0  0  0  0  0  0  0  0  0  0  0  0
    0.3943    1.2135    0.0000 C   0  0  0  0  0  0  0  0  0  0  0  0
    1.2760    0.0000    0.0000 C   0  0  0  0  0  0  0  0  0  0  0  0
    0.3943   -1.2135    0.0000 C   0  0  0  0  0  0  0  0  0  0  0  0
   -1.0323   -0.7500    0.0000 C   0  0  0  0  0  0  0  0  0  0  0  0
   -5.6539    5.3688    0.0000 Cl  0  0  0  0  0  0  0  0  0  0  0  0
  1  2  1  0
  2  3  1  0
  2  4  1  0
  2  5  1  0
  5  6  1  0
  6  7  2  0
  6  8  1  0
  8  9  2  0
  9 10  1  0
 10 11  1  0
 11 12  2  0
 10 13  1  0
 13 14  2  0
 14 15  1  0
 15 16  2  0
 16 17  1  0
 17 18  2  0
 18 19  1  0
 19 20  2  0
 19 21  1  0
 21 22  1  0
 22 23  1  0
 23 24  1  0
 24 25  1  0
 16 26  1  0
 12  8  1  0
 22  9  1  0
 18 13  1  0
 25 21  1  0
M  END
>  <Name>  (30) 
Mol_29

>  <MolSmiles>  (30) 
CC(C)(C)OC(=O)c1c2n(cn1)-c3ccc(cc3C(=O)N4C2CCC4)Cl

>  <ActivityClass>  (30) 
0.0

$$$$

     RDKit          2D

 27 30  0  0  0  0  0  0  0  0999 V2000
    7.0494    2.5923    0.0000 C   0  0  0  0  0  0  0  0  0  0  0  0
    6.0625    1.4627    0.0000 C   0  0  0  0  0  0  0  0  0  0  0  0
    5.0755    0.3331    0.0000 C   0  0  0  0  0  0  0  0  0  0  0  0
    7.1921    0.4757    0.0000 C   0  0  0  0  0  0  0  0  0  0  0  0
    4.9329    2.4496    0.0000 O   0  0  0  0  0  0  0  0  0  0  0  0
    3.5134    1.9648    0.0000 C   0  0  0  0  0  0  0  0  0  0  0  0
    3.2235    0.4930    0.0000 O   0  0  0  0  0  0  0  0  0  0  0  0
    2.3838    2.9517    0.0000 C   0  0  0  0  0  0  0  0  0  0  0  0
    0.9214    2.6179    0.0000 C   0  0  0  0  0  0  0  0  0  0  0  0
    0.1520    3.9056    0.0000 N   0  0  0  0  0  0  0  0  0  0  0  0
    1.1389    5.0352    0.0000 C   0  0  0  0  0  0  0  0  0  0  0  0
    2.5182    4.4456    0.0000 N   0  0  0  0  0  0  0  0  0  0  0  0
   -1.3344    4.1069    0.0000 C   0  0  0  0  0  0  0  0  0  0  0  0
   -1.6900    5.5641    0.0000 C   0  0  0  0  0  0  0  0  0  0  0  0
   -3.1298    5.9848    0.0000 C   0  0  0  0  0  0  0  0  0  0  0  0
   -4.2140    4.9482    0.0000 C   0  0  0  0  0  0  0  0  0  0  0  0
   -3.8584    3.4909    0.0000 C   0  0  0  0  0  0  0  0  0  0  0  0
   -2.4186    3.0703    0.0000 C   0  0  0  0  0  0  0  0  0  0  0  0
   -2.2841    1.5763    0.0000 C   0  0  0  0  0  0  0  0  0  0  0  0
   -3.5718    0.8070    0.0000 O   0  0  0  0  0  0  0  0  0  0  0  0
   -1.0323    0.7500    0.0000 N   0  0  0  0  0  0  0  0  0  0  0  0
    0.3943    1.2135    0.0000 C   0  0  0  0  0  0  0  0  0  0  0  0
    1.2760    0.0000    0.0000 C   0  0  0  0  0  0  0  0  0  0  0  0
    0.3943   -1.2135    0.0000 C   0  0  0  0  0  0  0  0  0  0  0  0
   -1.0323   -0.7500    0.0000 C   0  0  0  0  0  0  0  0  0  0  0  0
   -4.9426    2.4544    0.0000 O   0  0  0  0  0  0  0  0  0  0  0  0
   -6.3824    2.8750    0.0000 C   0  0  0  0  0  0  0  0  0  0  0  0
  1  2  1  0
  2  3  1  0
  2  4  1  0
  2  5  1  0
  5  6  1  0
  6  7  2  0
  6  8  1  0
  8  9  2  0
  9 10  1  0
 10 11  1  0
 11 12  2  0
 10 13  1  0
 13 14  2  0
 14 15  1  0
 15 16  2  0
 16 17  1  0
 17 18  2  0
 18 19  1  0
 19 20  2  0
 19 21  1  0
 21 22  1  0
 22 23  1  0
 23 24  1  0
 24 25  1  0
 17 26  1  0
 26 27  1  0
 12  8  1  0
 22  9  1  0
 18 13  1  0
 25 21  1  0
M  END
>  <Name>  (31) 
Mol_30

>  <MolSmiles>  (31) 
CC(C)(C)OC(=O)c1c2n(cn1)-c3cccc(c3C(=O)N4C2CCC4)OC

>  <ActivityClass>  (31) 
1.0

$$$$

     RDKit          2D

 26 29  0  0  0  0  0  0  0  0999 V2000
    7.0494    2.5923    0.0000 C   0  0  0  0  0  0  0  0  0  0  0  0
    6.0625    1.4627    0.0000 C   0  0  0  0  0  0  0  0  0  0  0  0
    5.0755    0.3331    0.0000 C   0  0  0  0  0  0  0  0  0  0  0  0
    7.1921    0.4757    0.0000 C   0  0  0  0  0  0  0  0  0  0  0  0
    4.9329    2.4496    0.0000 O   0  0  0  0  0  0  0  0  0  0  0  0
    3.5134    1.9648    0.0000 C   0  0  0  0  0  0  0  0  0  0  0  0
    3.2235    0.4930    0.0000 O   0  0  0  0  0  0  0  0  0  0  0  0
    2.3838    2.9517    0.0000 C   0  0  0  0  0  0  0  0  0  0  0  0
    0.9214    2.6179    0.0000 C   0  0  0  0  0  0  0  0  0  0  0  0
    0.1520    3.9056    0.0000 N   0  0  0  0  0  0  0  0  0  0  0  0
    1.1389    5.0352    0.0000 C   0  0  0  0  0  0  0  0  0  0  0  0
    2.5182    4.4456    0.0000 N   0  0  0  0  0  0  0  0  0  0  0  0
   -1.3344    4.1069    0.0000 C   0  0  0  0  0  0  0  0  0  0  0  0
   -1.6900    5.5641    0.0000 C   0  0  0  0  0  0  0  0  0  0  0  0
   -3.1298    5.9848    0.0000 C   0  0  0  0  0  0  0  0  0  0  0  0
   -4.2140    4.9482    0.0000 C   0  0  0  0  0  0  0  0  0  0  0  0
   -3.8584    3.4909    0.0000 C   0  0  0  0  0  0  0  0  0  0  0  0
   -2.4186    3.0703    0.0000 C   0  0  0  0  0  0  0  0  0  0  0  0
   -2.2841    1.5763    0.0000 C   0  0  0  0  0  0  0  0  0  0  0  0
   -3.5718    0.8070    0.0000 O   0  0  0  0  0  0  0  0  0  0  0  0
   -1.0323    0.7500    0.0000 N   0  0  0  0  0  0  0  0  0  0  0  0
    0.3943    1.2135    0.0000 C   0  0  0  0  0  0  0  0  0  0  0  0
    1.2760    0.0000    0.0000 C   0  0  0  0  0  0  0  0  0  0  0  0
    0.3943   -1.2135    0.0000 C   0  0  0  0  0  0  0  0  0  0  0  0
   -1.0323   -0.7500    0.0000 C   0  0  0  0  0  0  0  0  0  0  0  0
   -4.9426    2.4544    0.0000 Br  0  0  0  0  0  0  0  0  0  0  0  0
  1  2  1  0
  2  3  1  0
  2  4  1  0
  2  5  1  0
  5  6  1  0
  6  7  2  0
  6  8  1  0
  8  9  2  0
  9 10  1  0
 10 11  1  0
 11 12  2  0
 10 13  1  0
 13 14  2  0
 14 15  1  0
 15 16  2  0
 16 17  1  0
 17 18  2  0
 18 19  1  0
 19 20  2  0
 19 21  1  0
 21 22  1  0
 22 23  1  0
 23 24  1  0
 24 25  1  0
 17 26  1  0
 12  8  1  0
 22  9  1  0
 18 13  1  0
 25 21  1  0
M  END
>  <Name>  (32) 
Mol_31

>  <MolSmiles>  (32) 
CC(C)(C)OC(=O)c1c2n(cn1)-c3cccc(c3C(=O)N4C2CCC4)Br

>  <ActivityClass>  (32) 
0.0

$$$$

     RDKit          2D

 27 30  0  0  0  0  0  0  0  0999 V2000
    7.0494    2.5923    0.0000 C   0  0  0  0  0  0  0  0  0  0  0  0
    6.0625    1.4627    0.0000 C   0  0  0  0  0  0  0  0  0  0  0  0
    5.0755    0.3331    0.0000 C   0  0  0  0  0  0  0  0  0  0  0  0
    7.1921    0.4757    0.0000 C   0  0  0  0  0  0  0  0  0  0  0  0
    4.9329    2.4496    0.0000 O   0  0  0  0  0  0  0  0  0  0  0  0
    3.5134    1.9648    0.0000 C   0  0  0  0  0  0  0  0  0  0  0  0
    3.2235    0.4930    0.0000 O   0  0  0  0  0  0  0  0  0  0  0  0
    2.3838    2.9517    0.0000 C   0  0  0  0  0  0  0  0  0  0  0  0
    0.9214    2.6179    0.0000 C   0  0  0  0  0  0  0  0  0  0  0  0
    0.1520    3.9056    0.0000 N   0  0  0  0  0  0  0  0  0  0  0  0
    1.1389    5.0352    0.0000 C   0  0  0  0  0  0  0  0  0  0  0  0
    2.5182    4.4456    0.0000 N   0  0  0  0  0  0  0  0  0  0  0  0
   -1.3344    4.1069    0.0000 C   0  0  0  0  0  0  0  0  0  0  0  0
   -1.6900    5.5641    0.0000 C   0  0  0  0  0  0  0  0  0  0  0  0
   -3.1298    5.9848    0.0000 C   0  0  0  0  0  0  0  0  0  0  0  0
   -4.2140    4.9482    0.0000 C   0  0  0  0  0  0  0  0  0  0  0  0
   -3.8584    3.4909    0.0000 C   0  0  0  0  0  0  0  0  0  0  0  0
   -2.4186    3.0703    0.0000 C   0  0  0  0  0  0  0  0  0  0  0  0
   -2.2841    1.5763    0.0000 C   0  0  0  0  0  0  0  0  0  0  0  0
   -3.5718    0.8070    0.0000 O   0  0  0  0  0  0  0  0  0  0  0  0
   -1.0323    0.7500    0.0000 N   0  0  0  0  0  0  0  0  0  0  0  0
    0.3943    1.2135    0.0000 C   0  0  0  0  0  0  0  0  0  0  0  0
    1.2760    0.0000    0.0000 C   0  0  0  0  0  0  0  0  0  0  0  0
    0.3943   -1.2135    0.0000 C   0  0  0  0  0  0  0  0  0  0  0  0
   -1.0323   -0.7500    0.0000 C   0  0  0  0  0  0  0  0  0  0  0  0
   -4.9426    2.4544    0.0000 Cl  0  0  0  0  0  0  0  0  0  0  0  0
   -5.6539    5.3688    0.0000 F   0  0  0  0  0  0  0  0  0  0  0  0
  1  2  1  0
  2  3  1  0
  2  4  1  0
  2  5  1  0
  5  6  1  0
  6  7  2  0
  6  8  1  0
  8  9  2  0
  9 10  1  0
 10 11  1  0
 11 12  2  0
 10 13  1  0
 13 14  2  0
 14 15  1  0
 15 16  2  0
 16 17  1  0
 17 18  2  0
 18 19  1  0
 19 20  2  0
 19 21  1  0
 21 22  1  0
 22 23  1  0
 23 24  1  0
 24 25  1  0
 17 26  1  0
 16 27  1  0
 12  8  1  0
 22  9  1  0
 18 13  1  0
 25 21  1  0
M  END
>  <Name>  (33) 
Mol_32

>  <MolSmiles>  (33) 
CC(C)(C)OC(=O)c1c2n(cn1)-c3ccc(c(c3C(=O)N4C2CCC4)Cl)F

>  <ActivityClass>  (33) 
0.0

$$$$

     RDKit          2D

 27 30  0  0  0  0  0  0  0  0999 V2000
    3.4736    6.0774    0.0000 C   0  0  0  0  0  0  0  0  0  0  0  0
    2.5560    4.8908    0.0000 C   0  0  0  0  0  0  0  0  0  0  0  0
    1.0696    5.0922    0.0000 C   0  0  0  0  0  0  0  0  0  0  0  0
    0.5008    6.4801    0.0000 C   0  0  0  0  0  0  0  0  0  0  0  0
   -0.9857    6.6815    0.0000 C   0  0  0  0  0  0  0  0  0  0  0  0
   -1.9033    5.4949    0.0000 C   0  0  0  0  0  0  0  0  0  0  0  0
   -1.3344    4.1069    0.0000 C   0  0  0  0  0  0  0  0  0  0  0  0
    0.1520    3.9056    0.0000 C   0  0  0  0  0  0  0  0  0  0  0  0
    0.9214    2.6179    0.0000 C   0  0  0  0  0  0  0  0  0  0  0  0
    2.4153    2.7523    0.0000 O   0  0  0  0  0  0  0  0  0  0  0  0
    0.3943    1.2135    0.0000 N   0  0  0  0  0  0  0  0  0  0  0  0
    1.2760    0.0000    0.0000 C   0  0  0  0  0  0  0  0  0  0  0  0
    0.3943   -1.2135    0.0000 C   0  0  0  0  0  0  0  0  0  0  0  0
   -1.0323   -0.7500    0.0000 C   0  0  0  0  0  0  0  0  0  0  0  0
   -1.0323    0.7500    0.0000 C   0  0  0  0  0  0  0  0  0  0  0  0
   -2.2841    1.5763    0.0000 C   0  0  0  0  0  0  0  0  0  0  0  0
   -2.4186    3.0703    0.0000 N   0  0  0  0  0  0  0  0  0  0  0  0
   -3.8810    3.4041    0.0000 C   0  0  0  0  0  0  0  0  0  0  0  0
   -4.6503    2.1164    0.0000 N   0  0  0  0  0  0  0  0  0  0  0  0
   -3.6634    0.9868    0.0000 C   0  0  0  0  0  0  0  0  0  0  0  0
   -3.9972   -0.4756    0.0000 C   0  0  0  0  0  0  0  0  0  0  0  0
   -2.8976   -1.4958    0.0000 O   0  0  0  0  0  0  0  0  0  0  0  0
   -5.4306   -0.9177    0.0000 O   0  0  0  0  0  0  0  0  0  0  0  0
   -5.7644   -2.3801    0.0000 C   0  0  0  0  0  0  0  0  0  0  0  0
   -7.2268   -2.0463    0.0000 C   0  0  0  0  0  0  0  0  0  0  0  0
   -4.3020   -2.7139    0.0000 C   0  0  0  0  0  0  0  0  0  0  0  0
   -6.0981   -3.8425    0.0000 C   0  0  0  0  0  0  0  0  0  0  0  0
  1  2  1  0
  2  3  1  0
  3  4  2  0
  4  5  1  0
  5  6  2  0
  6  7  1  0
  7  8  2  0
  8  9  1  0
  9 10  2  0
  9 11  1  0
 11 12  1  0
 12 13  1  0
 13 14  1  0
 14 15  1  0
 15 16  1  0
 16 17  1  0
 17 18  1  0
 18 19  2  0
 19 20  1  0
 20 21  1  0
 21 22  2  0
 21 23  1  0
 23 24  1  0
 24 25  1  0
 24 26  1  0
 24 27  1  0
  8  3  1  0
  7 17  1  0
 15 11  1  0
 20 16  2  0
M  END
>  <Name>  (34) 
Mol_33

>  <MolSmiles>  (34) 
CCc1cccc-2c1C(=O)N3CCCC3c4n2cnc4C(=O)OC(C)(C)C

>  <ActivityClass>  (34) 
1.0

$$$$

     RDKit          2D

 25 29  0  0  0  0  0  0  0  0999 V2000
   -3.7119   -5.3061    0.0000 C   0  0  0  0  0  0  0  0  0  0  0  0
   -3.9908   -3.8323    0.0000 C   0  0  0  0  0  0  0  0  0  0  0  0
   -2.8539   -2.8539    0.0000 C   0  0  0  0  0  0  0  0  0  0  0  0
   -1.4380   -3.3493    0.0000 C   0  0  0  0  0  0  0  0  0  0  0  0
   -1.1592   -4.8231    0.0000 C   0  0  0  0  0  0  0  0  0  0  0  0
   -2.2961   -5.8016    0.0000 C   0  0  0  0  0  0  0  0  0  0  0  0
    0.2567   -5.3185    0.0000 Cl  0  0  0  0  0  0  0  0  0  0  0  0
   -0.1679   -2.5512    0.0000 C   0  0  0  0  0  0  0  0  0  0  0  0
    1.1021   -3.3493    0.0000 O   0  0  0  0  0  0  0  0  0  0  0  0
   -0.0000   -1.0607    0.0000 N   0  0  0  0  0  0  0  0  0  0  0  0
    1.0607    0.0000    0.0000 C   0  0  0  0  0  0  0  0  0  0  0  0
    0.0000    1.0607    0.0000 C   0  0  0  0  0  0  0  0  0  0  0  0
   -1.0607    0.0000    0.0000 C   0  0  0  0  0  0  0  0  0  0  0  0
   -2.5512   -0.1679    0.0000 C   0  0  0  0  0  0  0  0  0  0  0  0
   -3.3493   -1.4380    0.0000 N   0  0  0  0  0  0  0  0  0  0  0  0
   -4.8038   -1.0715    0.0000 C   0  0  0  0  0  0  0  0  0  0  0  0
   -4.9047    0.4251    0.0000 N   0  0  0  0  0  0  0  0  0  0  0  0
   -3.5125    0.9835    0.0000 C   0  0  0  0  0  0  0  0  0  0  0  0
   -3.1460    2.4381    0.0000 C   0  0  0  0  0  0  0  0  0  0  0  0
   -1.7031    2.8479    0.0000 O   0  0  0  0  0  0  0  0  0  0  0  0
   -4.2224    3.4827    0.0000 O   0  0  0  0  0  0  0  0  0  0  0  0
   -3.8559    4.9373    0.0000 C   0  0  0  0  0  0  0  0  0  0  0  0
   -4.9323    5.9819    0.0000 C   0  0  0  0  0  0  0  0  0  0  0  0
   -6.3869    6.3484    0.0000 C   0  0  0  0  0  0  0  0  0  0  0  0
   -5.3422    7.4249    0.0000 C   0  0  0  0  0  0  0  0  0  0  0  0
  1  2  2  0
  2  3  1  0
  3  4  2  0
  4  5  1  0
  5  6  2  0
  5  7  1  0
  4  8  1  0
  8  9  2  0
  8 10  1  0
 10 11  1  0
 11 12  1  0
 12 13  1  0
 13 14  1  0
 14 15  1  0
 15 16  1  0
 16 17  2  0
 17 18  1  0
 18 19  1  0
 19 20  2  0
 19 21  1  0
 21 22  1  0
 22 23  1  0
 23 24  1  0
 24 25  1  0
  6  1  1  0
  3 15  1  0
 13 10  1  0
 18 14  2  0
 25 23  1  0
M  END
>  <Name>  (35) 
Mol_34

>  <MolSmiles>  (35) 
c1cc-2c(c(c1)Cl)C(=O)N3CCC3c4n2cnc4C(=O)OCC5CC5

>  <ActivityClass>  (35) 
1.0

$$$$

     RDKit          2D

 25 28  0  0  0  0  0  0  0  0999 V2000
    5.3038   -5.3105    0.0000 C   0  0  0  0  0  0  0  0  0  0  0  0
    4.9373   -3.8559    0.0000 C   0  0  0  0  0  0  0  0  0  0  0  0
    4.5708   -2.4014    0.0000 C   0  0  0  0  0  0  0  0  0  0  0  0
    6.3918   -3.4894    0.0000 C   0  0  0  0  0  0  0  0  0  0  0  0
    3.4827   -4.2224    0.0000 O   0  0  0  0  0  0  0  0  0  0  0  0
    2.4381   -3.1460    0.0000 C   0  0  0  0  0  0  0  0  0  0  0  0
    2.8479   -1.7031    0.0000 O   0  0  0  0  0  0  0  0  0  0  0  0
    0.9835   -3.5125    0.0000 C   0  0  0  0  0  0  0  0  0  0  0  0
   -0.1679   -2.5512    0.0000 C   0  0  0  0  0  0  0  0  0  0  0  0
   -1.4380   -3.3493    0.0000 N   0  0  0  0  0  0  0  0  0  0  0  0
   -1.0715   -4.8038    0.0000 C   0  0  0  0  0  0  0  0  0  0  0  0
    0.4251   -4.9047    0.0000 N   0  0  0  0  0  0  0  0  0  0  0  0
   -2.8539   -2.8539    0.0000 C   0  0  0  0  0  0  0  0  0  0  0  0
   -3.8323   -3.9908    0.0000 C   0  0  0  0  0  0  0  0  0  0  0  0
   -5.3061   -3.7119    0.0000 C   0  0  0  0  0  0  0  0  0  0  0  0
   -5.8016   -2.2961    0.0000 C   0  0  0  0  0  0  0  0  0  0  0  0
   -4.8231   -1.1592    0.0000 C   0  0  0  0  0  0  0  0  0  0  0  0
   -3.3493   -1.4380    0.0000 C   0  0  0  0  0  0  0  0  0  0  0  0
   -2.5512   -0.1679    0.0000 C   0  0  0  0  0  0  0  0  0  0  0  0
   -3.3493    1.1021    0.0000 O   0  0  0  0  0  0  0  0  0  0  0  0
   -1.0607    0.0000    0.0000 N   0  0  0  0  0  0  0  0  0  0  0  0
   -0.0000   -1.0607    0.0000 C   0  0  0  0  0  0  0  0  0  0  0  0
    1.0607    0.0000    0.0000 C   0  0  0  0  0  0  0  0  0  0  0  0
    0.0000    1.0607    0.0000 C   0  0  0  0  0  0  0  0  0  0  0  0
   -7.2754   -2.0173    0.0000 F   0  0  0  0  0  0  0  0  0  0  0  0
  1  2  1  0
  2  3  1  0
  2  4  1  0
  2  5  1  0
  5  6  1  0
  6  7  2  0
  6  8  1  0
  8  9  2  0
  9 10  1  0
 10 11  1  0
 11 12  2  0
 10 13  1  0
 13 14  2  0
 14 15  1  0
 15 16  2  0
 16 17  1  0
 17 18  2  0
 18 19  1  0
 19 20  2  0
 19 21  1  0
 21 22  1  0
 22 23  1  0
 23 24  1  0
 16 25  1  0
 12  8  1  0
 22  9  1  0
 18 13  1  0
 24 21  1  0
M  END
>  <Name>  (36) 
Mol_35

>  <MolSmiles>  (36) 
CC(C)(C)OC(=O)c1c2n(cn1)-c3ccc(cc3C(=O)N4C2CC4)F

>  <ActivityClass>  (36) 
0.0

$$$$

     RDKit          2D

 28 32  0  0  0  0  0  0  0  0999 V2000
   -0.9857    6.6815    0.0000 C   0  0  0  0  0  0  0  0  0  0  0  0
   -1.9033    5.4949    0.0000 C   0  0  0  0  0  0  0  0  0  0  0  0
   -1.3344    4.1069    0.0000 C   0  0  0  0  0  0  0  0  0  0  0  0
    0.1520    3.9056    0.0000 C   0  0  0  0  0  0  0  0  0  0  0  0
    1.0696    5.0922    0.0000 C   0  0  0  0  0  0  0  0  0  0  0  0
    0.5008    6.4801    0.0000 C   0  0  0  0  0  0  0  0  0  0  0  0
    1.4183    7.6667    0.0000 Cl  0  0  0  0  0  0  0  0  0  0  0  0
    0.9214    2.6179    0.0000 C   0  0  0  0  0  0  0  0  0  0  0  0
    2.4153    2.7523    0.0000 O   0  0  0  0  0  0  0  0  0  0  0  0
    0.3943    1.2135    0.0000 N   0  0  0  0  0  0  0  0  0  0  0  0
    1.2760    0.0000    0.0000 C   0  0  0  0  0  0  0  0  0  0  0  0
    0.3943   -1.2135    0.0000 C   0  0  0  0  0  0  0  0  0  0  0  0
   -1.0323   -0.7500    0.0000 C   0  0  0  0  0  0  0  0  0  0  0  0
   -1.0323    0.7500    0.0000 C   0  0  0  0  0  0  0  0  0  0  0  0
   -2.2841    1.5763    0.0000 C   0  0  0  0  0  0  0  0  0  0  0  0
   -2.4186    3.0703    0.0000 N   0  0  0  0  0  0  0  0  0  0  0  0
   -3.8810    3.4041    0.0000 C   0  0  0  0  0  0  0  0  0  0  0  0
   -4.6503    2.1164    0.0000 N   0  0  0  0  0  0  0  0  0  0  0  0
   -3.6634    0.9868    0.0000 C   0  0  0  0  0  0  0  0  0  0  0  0
   -3.9972   -0.4756    0.0000 C   0  0  0  0  0  0  0  0  0  0  0  0
   -2.8976   -1.4958    0.0000 O   0  0  0  0  0  0  0  0  0  0  0  0
   -5.4306   -0.9177    0.0000 O   0  0  0  0  0  0  0  0  0  0  0  0
   -5.7644   -2.3801    0.0000 C   0  0  0  0  0  0  0  0  0  0  0  0
   -7.1977   -2.8222    0.0000 C   0  0  0  0  0  0  0  0  0  0  0  0
   -7.5315   -4.2846    0.0000 C   0  0  0  0  0  0  0  0  0  0  0  0
   -6.4319   -5.3049    0.0000 C   0  0  0  0  0  0  0  0  0  0  0  0
   -4.9986   -4.8628    0.0000 C   0  0  0  0  0  0  0  0  0  0  0  0
   -4.6648   -3.4004    0.0000 C   0  0  0  0  0  0  0  0  0  0  0  0
  1  2  2  0
  2  3  1  0
  3  4  2  0
  4  5  1  0
  5  6  2  0
  6  7  1  0
  4  8  1  0
  8  9  2  0
  8 10  1  0
 10 11  1  0
 11 12  1  0
 12 13  1  0
 13 14  1  0
 14 15  1  0
 15 16  1  0
 16 17  1  0
 17 18  2  0
 18 19  1  0
 19 20  1  0
 20 21  2  0
 20 22  1  0
 22 23  1  0
 23 24  1  0
 24 25  1  0
 25 26  1  0
 26 27  1  0
 27 28  1  0
  6  1  1  0
  3 16  1  0
 14 10  1  0
 19 15  2  0
 28 23  1  0
M  END
>  <Name>  (37) 
Mol_36

>  <MolSmiles>  (37) 
c1cc-2c(cc1Cl)C(=O)N3CCCC3c4n2cnc4C(=O)OC5CCCCC5

>  <ActivityClass>  (37) 
0.0

$$$$

     RDKit          2D

 26 30  0  0  0  0  0  0  0  0999 V2000
   -0.9857    6.6815    0.0000 C   0  0  0  0  0  0  0  0  0  0  0  0
   -1.9033    5.4949    0.0000 C   0  0  0  0  0  0  0  0  0  0  0  0
   -1.3344    4.1069    0.0000 C   0  0  0  0  0  0  0  0  0  0  0  0
    0.1520    3.9056    0.0000 C   0  0  0  0  0  0  0  0  0  0  0  0
    1.0696    5.0922    0.0000 C   0  0  0  0  0  0  0  0  0  0  0  0
    0.5008    6.4801    0.0000 C   0  0  0  0  0  0  0  0  0  0  0  0
    1.4183    7.6667    0.0000 Cl  0  0  0  0  0  0  0  0  0  0  0  0
    0.9214    2.6179    0.0000 C   0  0  0  0  0  0  0  0  0  0  0  0
    2.4153    2.7523    0.0000 O   0  0  0  0  0  0  0  0  0  0  0  0
    0.3943    1.2135    0.0000 N   0  0  0  0  0  0  0  0  0  0  0  0
    1.2760    0.0000    0.0000 C   0  0  0  0  0  0  0  0  0  0  0  0
    0.3943   -1.2135    0.0000 C   0  0  0  0  0  0  0  0  0  0  0  0
   -1.0323   -0.7500    0.0000 C   0  0  0  0  0  0  0  0  0  0  0  0
   -1.0323    0.7500    0.0000 C   0  0  0  0  0  0  0  0  0  0  0  0
   -2.2841    1.5763    0.0000 C   0  0  0  0  0  0  0  0  0  0  0  0
   -2.4186    3.0703    0.0000 N   0  0  0  0  0  0  0  0  0  0  0  0
   -3.8810    3.4041    0.0000 C   0  0  0  0  0  0  0  0  0  0  0  0
   -4.6503    2.1164    0.0000 N   0  0  0  0  0  0  0  0  0  0  0  0
   -3.6634    0.9868    0.0000 C   0  0  0  0  0  0  0  0  0  0  0  0
   -3.9972   -0.4756    0.0000 C   0  0  0  0  0  0  0  0  0  0  0  0
   -2.8976   -1.4958    0.0000 O   0  0  0  0  0  0  0  0  0  0  0  0
   -5.4306   -0.9177    0.0000 O   0  0  0  0  0  0  0  0  0  0  0  0
   -5.7644   -2.3801    0.0000 C   0  0  0  0  0  0  0  0  0  0  0  0
   -7.1977   -2.8222    0.0000 C   0  0  0  0  0  0  0  0  0  0  0  0
   -8.2180   -3.9218    0.0000 C   0  0  0  0  0  0  0  0  0  0  0  0
   -8.6601   -2.4885    0.0000 C   0  0  0  0  0  0  0  0  0  0  0  0
  1  2  2  0
  2  3  1  0
  3  4  2  0
  4  5  1  0
  5  6  2  0
  6  7  1  0
  4  8  1  0
  8  9  2  0
  8 10  1  0
 10 11  1  0
 11 12  1  0
 12 13  1  0
 13 14  1  0
 14 15  1  0
 15 16  1  0
 16 17  1  0
 17 18  2  0
 18 19  1  0
 19 20  1  0
 20 21  2  0
 20 22  1  0
 22 23  1  0
 23 24  1  0
 24 25  1  0
 25 26  1  0
  6  1  1  0
  3 16  1  0
 14 10  1  0
 19 15  2  0
 26 24  1  0
M  END
>  <Name>  (38) 
Mol_37

>  <MolSmiles>  (38) 
c1cc-2c(cc1Cl)C(=O)N3CCCC3c4n2cnc4C(=O)OCC5CC5

>  <ActivityClass>  (38) 
0.0

$$$$

     RDKit          2D

 22 24  0  0  0  0  0  0  0  0999 V2000
    3.0333    9.3140    0.0000 C   0  0  0  0  0  0  0  0  0  0  0  0
    1.5709    8.9802    0.0000 C   0  0  0  0  0  0  0  0  0  0  0  0
    0.1085    8.6464    0.0000 C   0  0  0  0  0  0  0  0  0  0  0  0
    1.2372   10.4426    0.0000 C   0  0  0  0  0  0  0  0  0  0  0  0
    1.9047    7.5178    0.0000 O   0  0  0  0  0  0  0  0  0  0  0  0
    0.8051    6.4976    0.0000 C   0  0  0  0  0  0  0  0  0  0  0  0
   -0.6282    6.9397    0.0000 O   0  0  0  0  0  0  0  0  0  0  0  0
    1.1389    5.0352    0.0000 C   0  0  0  0  0  0  0  0  0  0  0  0
    0.1520    3.9056    0.0000 C   0  0  0  0  0  0  0  0  0  0  0  0
    0.9214    2.6179    0.0000 N   0  0  0  0  0  0  0  0  0  0  0  0
    2.3838    2.9517    0.0000 C   0  0  0  0  0  0  0  0  0  0  0  0
    2.5182    4.4456    0.0000 N   0  0  0  0  0  0  0  0  0  0  0  0
    0.3943    1.2135    0.0000 C   0  0  0  0  0  0  0  0  0  0  0  0
    1.2760    0.0000    0.0000 C   0  0  0  0  0  0  0  0  0  0  0  0
    0.3943   -1.2135    0.0000 C   0  0  0  0  0  0  0  0  0  0  0  0
   -1.0323   -0.7500    0.0000 S   0  0  0  0  0  0  0  0  0  0  0  0
   -1.0323    0.7500    0.0000 C   0  0  0  0  0  0  0  0  0  0  0  0
   -2.2841    1.5763    0.0000 C   0  0  0  0  0  0  0  0  0  0  0  0
   -3.5718    0.8070    0.0000 O   0  0  0  0  0  0  0  0  0  0  0  0
   -2.4186    3.0703    0.0000 N   0  0  0  0  0  0  0  0  0  0  0  0
   -1.3344    4.1069    0.0000 C   0  0  0  0  0  0  0  0  0  0  0  0
   -3.8230    3.5974    0.0000 C   0  0  0  0  0  0  0  0  0  0  0  0
  1  2  1  0
  2  3  1  0
  2  4  1  0
  2  5  1  0
  5  6  1  0
  6  7  2  0
  6  8  1  0
  8  9  2  0
  9 10  1  0
 10 11  1  0
 11 12  2  0
 10 13  1  0
 13 14  1  0
 14 15  2  0
 15 16  1  0
 16 17  1  0
 17 18  1  0
 18 19  2  0
 18 20  1  0
 20 21  1  0
 20 22  1  0
 12  8  1  0
 21  9  1  0
 17 13  2  0
M  END
>  <Name>  (39) 
Mol_38

>  <MolSmiles>  (39) 
CC(C)(C)OC(=O)c1c2n(cn1)-c3ccsc3C(=O)N(C2)C

>  <ActivityClass>  (39) 
0.0

$$$$

     RDKit          2D

 28 31  0  0  0  0  0  0  0  0999 V2000
    5.6301   -8.9525    0.0000 C   0  0  0  0  0  0  0  0  0  0  0  0
    4.2691   -8.3220    0.0000 C   0  0  0  0  0  0  0  0  0  0  0  0
    4.1346   -6.8280    0.0000 O   0  0  0  0  0  0  0  0  0  0  0  0
    2.7736   -6.1975    0.0000 C   0  0  0  0  0  0  0  0  0  0  0  0
    1.5470   -7.0609    0.0000 O   0  0  0  0  0  0  0  0  0  0  0  0
    2.6391   -4.7035    0.0000 C   0  0  0  0  0  0  0  0  0  0  0  0
    1.3515   -3.9342    0.0000 C   0  0  0  0  0  0  0  0  0  0  0  0
    1.6852   -2.4718    0.0000 N   0  0  0  0  0  0  0  0  0  0  0  0
    3.1792   -2.3373    0.0000 C   0  0  0  0  0  0  0  0  0  0  0  0
    3.7687   -3.7166    0.0000 N   0  0  0  0  0  0  0  0  0  0  0  0
    3.9485   -1.0497    0.0000 C   0  0  0  0  0  0  0  0  0  0  0  0
    0.7500   -1.2990    0.0000 C   0  0  0  0  0  0  0  0  0  0  0  0
    1.5000    0.0000    0.0000 C   0  0  0  0  0  0  0  0  0  0  0  0
    0.7500    1.2990    0.0000 C   0  0  0  0  0  0  0  0  0  0  0  0
   -0.7500    1.2990    0.0000 C   0  0  0  0  0  0  0  0  0  0  0  0
   -1.5000    0.0000    0.0000 C   0  0  0  0  0  0  0  0  0  0  0  0
   -0.7500   -1.2990    0.0000 C   0  0  0  0  0  0  0  0  0  0  0  0
   -1.6852   -2.4718    0.0000 C   0  0  0  0  0  0  0  0  0  0  0  0
   -1.3515   -3.9342    0.0000 N   0  0  0  0  0  0  0  0  0  0  0  0
   -0.0000   -4.5850    0.0000 C   0  0  0  0  0  0  0  0  0  0  0  0
   -3.1476   -2.1380    0.0000 C   0  0  0  0  0  0  0  0  0  0  0  0
   -3.5898   -0.7046    0.0000 C   0  0  0  0  0  0  0  0  0  0  0  0
   -5.0522   -0.3709    0.0000 C   0  0  0  0  0  0  0  0  0  0  0  0
   -6.0724   -1.4704    0.0000 C   0  0  0  0  0  0  0  0  0  0  0  0
   -5.6303   -2.9038    0.0000 C   0  0  0  0  0  0  0  0  0  0  0  0
   -4.1679   -3.2376    0.0000 C   0  0  0  0  0  0  0  0  0  0  0  0
   -3.7258   -4.6709    0.0000 Cl  0  0  0  0  0  0  0  0  0  0  0  0
   -1.5000    2.5981    0.0000 Cl  0  0  0  0  0  0  0  0  0  0  0  0
  1  2  1  0
  2  3  1  0
  3  4  1  0
  4  5  2  0
  4  6  1  0
  6  7  2  0
  7  8  1  0
  8  9  1  0
  9 10  2  0
  9 11  1  0
  8 12  1  0
 12 13  2  0
 13 14  1  0
 14 15  2  0
 15 16  1  0
 16 17  2  0
 17 18  1  0
 18 19  2  0
 19 20  1  0
 18 21  1  0
 21 22  2  0
 22 23  1  0
 23 24  2  0
 24 25  1  0
 25 26  2  0
 26 27  1  0
 15 28  1  0
 10  6  1  0
 20  7  1  0
 17 12  1  0
 26 21  1  0
M  END
>  <Name>  (40) 
Mol_39

>  <MolSmiles>  (40) 
CCOC(=O)c1c2n(c(n1)C)-c3ccc(cc3C(=NC2)c4ccccc4Cl)Cl

>  <ActivityClass>  (40) 
1.0

$$$$

     RDKit          2D

 27 30  0  0  0  0  0  0  0  0999 V2000
    5.6301   -8.9525    0.0000 C   0  0  0  0  0  0  0  0  0  0  0  0
    4.2691   -8.3220    0.0000 C   0  0  0  0  0  0  0  0  0  0  0  0
    4.1346   -6.8280    0.0000 O   0  0  0  0  0  0  0  0  0  0  0  0
    2.7736   -6.1975    0.0000 C   0  0  0  0  0  0  0  0  0  0  0  0
    1.5470   -7.0609    0.0000 O   0  0  0  0  0  0  0  0  0  0  0  0
    2.6391   -4.7035    0.0000 C   0  0  0  0  0  0  0  0  0  0  0  0
    1.3515   -3.9342    0.0000 C   0  0  0  0  0  0  0  0  0  0  0  0
    1.6852   -2.4718    0.0000 N   0  0  0  0  0  0  0  0  0  0  0  0
    3.1792   -2.3373    0.0000 C   0  0  0  0  0  0  0  0  0  0  0  0
    3.7687   -3.7166    0.0000 N   0  0  0  0  0  0  0  0  0  0  0  0
    0.7500   -1.2990    0.0000 C   0  0  0  0  0  0  0  0  0  0  0  0
    1.5000    0.0000    0.0000 C   0  0  0  0  0  0  0  0  0  0  0  0
    0.7500    1.2990    0.0000 C   0  0  0  0  0  0  0  0  0  0  0  0
   -0.7500    1.2990    0.0000 C   0  0  0  0  0  0  0  0  0  0  0  0
   -1.5000    0.0000    0.0000 C   0  0  0  0  0  0  0  0  0  0  0  0
   -0.7500   -1.2990    0.0000 C   0  0  0  0  0  0  0  0  0  0  0  0
   -1.6852   -2.4718    0.0000 C   0  0  0  0  0  0  0  0  0  0  0  0
   -1.3515   -3.9342    0.0000 N   0  0  0  0  0  0  0  0  0  0  0  0
   -0.0000   -4.5850    0.0000 C   0  0  0  0  0  0  0  0  0  0  0  0
   -3.1476   -2.1380    0.0000 C   0  0  0  0  0  0  0  0  0  0  0  0
   -3.5898   -0.7046    0.0000 C   0  0  0  0  0  0  0  0  0  0  0  0
   -5.0522   -0.3709    0.0000 C   0  0  0  0  0  0  0  0  0  0  0  0
   -6.0724   -1.4704    0.0000 C   0  0  0  0  0  0  0  0  0  0  0  0
   -5.6303   -2.9038    0.0000 C   0  0  0  0  0  0  0  0  0  0  0  0
   -4.1679   -3.2376    0.0000 C   0  0  0  0  0  0  0  0  0  0  0  0
   -3.7258   -4.6709    0.0000 Cl  0  0  0  0  0  0  0  0  0  0  0  0
   -1.5000    2.5981    0.0000 Cl  0  0  0  0  0  0  0  0  0  0  0  0
  1  2  1  0
  2  3  1  0
  3  4  1  0
  4  5  2  0
  4  6  1  0
  6  7  2  0
  7  8  1  0
  8  9  1  0
  9 10  2  0
  8 11  1  0
 11 12  2  0
 12 13  1  0
 13 14  2  0
 14 15  1  0
 15 16  2  0
 16 17  1  0
 17 18  2  0
 18 19  1  0
 17 20  1  0
 20 21  2  0
 21 22  1  0
 22 23  2  0
 23 24  1  0
 24 25  2  0
 25 26  1  0
 14 27  1  0
 10  6  1  0
 19  7  1  0
 16 11  1  0
 25 20  1  0
M  END
>  <Name>  (41) 
Mol_40

>  <MolSmiles>  (41) 
CCOC(=O)c1c2n(cn1)-c3ccc(cc3C(=NC2)c4ccccc4Cl)Cl

>  <ActivityClass>  (41) 
1.0

$$$$

     RDKit          2D

 23 26  0  0  0  0  0  0  0  0999 V2000
    3.9485   -1.0497    0.0000 C   0  0  0  0  0  0  0  0  0  0  0  0
    3.1792   -2.3373    0.0000 C   0  0  0  0  0  0  0  0  0  0  0  0
    3.7687   -3.7166    0.0000 N   0  0  0  0  0  0  0  0  0  0  0  0
    2.6391   -4.7035    0.0000 N   0  0  0  0  0  0  0  0  0  0  0  0
    1.3515   -3.9342    0.0000 C   0  0  0  0  0  0  0  0  0  0  0  0
    1.6852   -2.4718    0.0000 N   0  0  0  0  0  0  0  0  0  0  0  0
    0.7500   -1.2990    0.0000 C   0  0  0  0  0  0  0  0  0  0  0  0
    1.5000    0.0000    0.0000 C   0  0  0  0  0  0  0  0  0  0  0  0
    0.7500    1.2990    0.0000 C   0  0  0  0  0  0  0  0  0  0  0  0
   -0.7500    1.2990    0.0000 C   0  0  0  0  0  0  0  0  0  0  0  0
   -1.5000    0.0000    0.0000 C   0  0  0  0  0  0  0  0  0  0  0  0
   -0.7500   -1.2990    0.0000 C   0  0  0  0  0  0  0  0  0  0  0  0
   -1.6852   -2.4718    0.0000 C   0  0  0  0  0  0  0  0  0  0  0  0
   -1.3515   -3.9342    0.0000 N   0  0  0  0  0  0  0  0  0  0  0  0
   -0.0000   -4.5850    0.0000 C   0  0  0  0  0  0  0  0  0  0  0  0
   -3.1476   -2.1380    0.0000 C   0  0  0  0  0  0  0  0  0  0  0  0
   -3.5898   -0.7046    0.0000 C   0  0  0  0  0  0  0  0  0  0  0  0
   -5.0522   -0.3709    0.0000 C   0  0  0  0  0  0  0  0  0  0  0  0
   -6.0724   -1.4704    0.0000 C   0  0  0  0  0  0  0  0  0  0  0  0
   -5.6303   -2.9038    0.0000 C   0  0  0  0  0  0  0  0  0  0  0  0
   -4.1679   -3.2376    0.0000 C   0  0  0  0  0  0  0  0  0  0  0  0
   -3.7258   -4.6709    0.0000 Cl  0  0  0  0  0  0  0  0  0  0  0  0
   -1.5000    2.5981    0.0000 Cl  0  0  0  0  0  0  0  0  0  0  0  0
  1  2  1  0
  2  3  2  0
  3  4  1  0
  4  5  2  0
  5  6  1  0
  6  7  1  0
  7  8  2  0
  8  9  1  0
  9 10  2  0
 10 11  1  0
 11 12  2  0
 12 13  1  0
 13 14  2  0
 14 15  1  0
 13 16  1  0
 16 17  2  0
 17 18  1  0
 18 19  2  0
 19 20  1  0
 20 21  2  0
 21 22  1  0
 10 23  1  0
  6  2  1  0
 15  5  1  0
 12  7  1  0
 21 16  1  0
M  END
>  <Name>  (42) 
Mol_41

>  <MolSmiles>  (42) 
Cc1nnc2n1-c3ccc(cc3C(=NC2)c4ccccc4Cl)Cl

>  <ActivityClass>  (42) 
1.0

$$$$
